download/pglib-opf-master/api/pglib_opf_case2853_sdet__api.m
%%%%%%%%%%%%%%%%%%%%%%%%%%%%%%%%%%%%%%%%%%%%%%%%%%%%%%%%%%%%%%%%%%%%%%%%%%%
%%%%                                                                  %%%%%
%%%%    IEEE PES Power Grid Library - Optimal Power Flow - v19.05     %%%%%
%%%%          (https://github.com/power-grid-lib/pglib-opf)           %%%%%
%%%%             Benchmark Group - Active Power Increase              %%%%%
%%%%                         08 - May - 2019                          %%%%%
%%%%                                                                  %%%%%
%%%%%%%%%%%%%%%%%%%%%%%%%%%%%%%%%%%%%%%%%%%%%%%%%%%%%%%%%%%%%%%%%%%%%%%%%%%
function mpc = pglib_opf_case2853_sdet__api
mpc.version = '2';
mpc.baseMVA = 100.0;

%% bus data
%	bus_i	type	Pd	Qd	Gs	Bs	area	Vm	Va	baseKV	zone	Vmax	Vmin
mpc.bus = [
	1	 1	 0.10	 -1.05	 0.0	 4.11	 1	    1.00000	    0.00000	 138.0	 1	    1.10000	    0.90000;
	2	 2	 0.0	 0.0	 0.0	 0.0	 1	    1.00000	    0.00000	 20.0	 1	    1.10000	    0.90000;
	3	 1	 -7.61	 2.37	 0.0	 0.0	 1	    1.00000	    0.00000	 138.0	 1	    1.10000	    0.90000;
	4	 1	 0.10	 -0.34	 0.0	 0.0	 1	    1.00000	    0.00000	 138.0	 1	    1.10000	    0.90000;
	5	 1	 0.10	 -0.19	 0.0	 0.0	 1	    1.00000	    0.00000	 138.0	 1	    1.10000	    0.90000;
	6	 2	 0.0	 0.0	 0.0	 0.0	 1	    1.00000	    0.00000	 20.0	 1	    1.10000	    0.90000;
	7	 1	 -19.32	 6.40	 0.0	 0.0	 1	    1.00000	    0.00000	 138.0	 1	    1.10000	    0.90000;
	8	 1	 -41.65	 13.40	 0.0	 0.0	 1	    1.00000	    0.00000	 138.0	 1	    1.10000	    0.90000;
	9	 1	 0.10	 -0.24	 0.0	 0.0	 1	    1.00000	    0.00000	 138.0	 1	    1.10000	    0.90000;
	10	 2	 -6.70	 -8.98	 0.0	 0.0	 1	    1.00000	    0.00000	 138.0	 1	    1.10000	    0.90000;
	11	 1	 96.28	 -2.53	 0.0	 0.0	 1	    1.00000	    0.00000	 138.0	 1	    1.10000	    0.90000;
	12	 2	 -10.41	 -7.41	 0.0	 38.43	 1	    1.00000	    0.00000	 138.0	 1	    1.10000	    0.90000;
	13	 1	 0.13	 0.08	 0.0	 0.0	 1	    1.00000	    0.00000	 138.0	 1	    1.10000	    0.90000;
	14	 1	 0.10	 -2.08	 0.0	 0.0	 1	    1.00000	    0.00000	 138.0	 1	    1.10000	    0.90000;
	15	 2	 0.0	 0.0	 0.0	 0.0	 1	    1.00000	    0.00000	 20.0	 1	    1.10000	    0.90000;
	16	 2	 0.0	 0.0	 0.0	 0.0	 1	    1.00000	    0.00000	 20.0	 1	    1.10000	    0.90000;
	17	 2	 0.10	 -1.53	 0.0	 28.75	 1	    1.00000	    0.00000	 138.0	 1	    1.10000	    0.90000;
	18	 1	 156.49	 59.50	 0.0	 21.06	 1	    1.00000	    0.00000	 138.0	 1	    1.10000	    0.90000;
	19	 1	 43.15	 13.07	 0.0	 5.26	 1	    1.00000	    0.00000	 138.0	 1	    1.10000	    0.90000;
	20	 1	 -0.54	 -5.80	 0.0	 0.0	 1	    1.00000	    0.00000	 138.0	 1	    1.10000	    0.90000;
	21	 1	 -10.71	 2.92	 0.0	 0.0	 1	    1.00000	    0.00000	 138.0	 1	    1.10000	    0.90000;
	22	 1	 0.10	 -4.36	 0.0	 0.0	 1	    1.00000	    0.00000	 138.0	 1	    1.10000	    0.90000;
	23	 1	 0.10	 -2.42	 0.0	 0.0	 1	    1.00000	    0.00000	 138.0	 1	    1.10000	    0.90000;
	24	 2	 0.0	 0.0	 0.0	 0.0	 1	    1.00000	    0.00000	 20.0	 1	    1.10000	    0.90000;
	25	 1	 0.10	 -1.09	 0.0	 1.74	 1	    1.00000	    0.00000	 138.0	 1	    1.10000	    0.90000;
	26	 2	 0.0	 0.0	 0.0	 0.0	 1	    1.00000	    0.00000	 20.0	 1	    1.10000	    0.90000;
	27	 2	 0.0	 0.0	 0.0	 0.0	 1	    1.00000	    0.00000	 20.0	 1	    1.10000	    0.90000;
	28	 1	 0.10	 -0.38	 0.0	 0.0	 1	    1.00000	    0.00000	 138.0	 1	    1.10000	    0.90000;
	29	 1	 210.49	 89.90	 0.0	 0.0	 1	    1.00000	    0.00000	 138.0	 1	    1.10000	    0.90000;
	30	 2	 210.49	 88.70	 0.0	 -5.21	 1	    1.00000	    0.00000	 138.0	 1	    1.10000	    0.90000;
	31	 1	 24.24	 9.50	 0.0	 0.0	 1	    1.00000	    0.00000	 138.0	 1	    1.10000	    0.90000;
	32	 1	 -15.12	 4.75	 0.0	 0.0	 1	    1.00000	    0.00000	 138.0	 1	    1.10000	    0.90000;
	33	 1	 0.10	 -1.32	 0.0	 1.08	 1	    1.00000	    0.00000	 138.0	 1	    1.10000	    0.90000;
	34	 2	 0.0	 0.0	 0.0	 0.0	 1	    1.00000	    0.00000	 20.0	 1	    1.10000	    0.90000;
	35	 1	 0.10	 -3.06	 0.0	 0.0	 1	    1.00000	    0.00000	 138.0	 1	    1.10000	    0.90000;
	36	 1	 0.10	 -1.77	 0.0	 0.0	 1	    1.00000	    0.00000	 138.0	 1	    1.10000	    0.90000;
	37	 1	 0.10	 -0.36	 0.0	 0.0	 1	    1.00000	    0.00000	 138.0	 1	    1.10000	    0.90000;
	38	 1	 0.0	 0.0	 0.0	 0.0	 1	    1.00000	    0.00000	 138.0	 1	    1.10000	    0.90000;
	39	 1	 0.10	 -0.35	 0.0	 0.0	 1	    1.00000	    0.00000	 138.0	 1	    1.10000	    0.90000;
	40	 1	 0.16	 0.12	 0.0	 0.0	 1	    1.00000	    0.00000	 138.0	 1	    1.10000	    0.90000;
	41	 1	 0.10	 -1.35	 0.0	 0.0	 1	    1.00000	    0.00000	 138.0	 1	    1.10000	    0.90000;
	42	 1	 -20.12	 5.75	 0.0	 0.0	 1	    1.00000	    0.00000	 138.0	 1	    1.10000	    0.90000;
	43	 1	 0.10	 -3.79	 0.0	 0.58	 1	    1.00000	    0.00000	 138.0	 1	    1.10000	    0.90000;
	44	 2	 0.0	 0.0	 0.0	 0.0	 1	    1.00000	    0.00000	 20.0	 1	    1.10000	    0.90000;
	45	 2	 0.0	 0.0	 0.0	 0.0	 1	    1.00000	    0.00000	 20.0	 1	    1.10000	    0.90000;
	46	 1	 0.0	 0.0	 0.0	 0.0	 1	    1.00000	    0.00000	 138.0	 1	    1.10000	    0.90000;
	47	 1	 0.0	 0.0	 0.0	 0.0	 2	    1.00000	    0.00000	 138.0	 2	    1.10000	    0.90000;
	48	 1	 27.05	 -16.50	 0.0	 0.0	 2	    1.00000	    0.00000	 500.0	 2	    1.10000	    0.90000;
	49	 1	 10.13	 13.11	 0.0	 4.18	 2	    1.00000	    0.00000	 138.0	 2	    1.10000	    0.90000;
	50	 1	 0.0	 0.0	 0.0	 0.02	 2	    1.00000	    0.00000	 138.0	 2	    1.10000	    0.90000;
	51	 1	 0.10	 -0.40	 0.0	 0.0	 2	    1.00000	    0.00000	 138.0	 2	    1.10000	    0.90000;
	52	 1	 0.0	 0.0	 0.0	 0.0	 2	    1.00000	    0.00000	 138.0	 2	    1.10000	    0.90000;
	53	 1	 14.80	 -77.73	 0.0	 44.53	 2	    1.00000	    0.00000	 500.0	 2	    1.10000	    0.90000;
	54	 1	 -15.80	 -10.40	 0.0	 0.0	 2	    1.00000	    0.00000	 138.0	 2	    1.10000	    0.90000;
	55	 1	 -15.92	 4.90	 0.0	 0.0	 2	    1.00000	    0.00000	 138.0	 2	    1.10000	    0.90000;
	56	 1	 91.16	 39.78	 0.0	 19.14	 2	    1.00000	    0.00000	 138.0	 2	    1.10000	    0.90000;
	57	 1	 35.54	 7.96	 0.0	 0.0	 2	    1.00000	    0.00000	 138.0	 2	    1.10000	    0.90000;
	58	 1	 0.0	 0.0	 0.0	 0.0	 2	    1.00000	    0.00000	 138.0	 2	    1.10000	    0.90000;
	59	 1	 31.71	 11.14	 0.0	 0.0	 2	    1.00000	    0.00000	 138.0	 2	    1.10000	    0.90000;
	60	 1	 0.10	 -0.50	 0.0	 0.0	 2	    1.00000	    0.00000	 138.0	 2	    1.10000	    0.90000;
	61	 1	 0.10	 -1.78	 0.0	 6.93	 2	    1.00000	    0.00000	 138.0	 2	    1.10000	    0.90000;
	62	 1	 0.0	 0.0	 0.0	 0.0	 2	    1.00000	    0.00000	 138.0	 2	    1.10000	    0.90000;
	63	 1	 0.10	 -0.74	 0.0	 0.0	 2	    1.00000	    0.00000	 138.0	 2	    1.10000	    0.90000;
	64	 2	 413.00	 -361.88	 0.0	 0.0	 2	    1.00000	    0.00000	 500.0	 2	    1.10000	    0.90000;
	65	 2	 0.0	 0.0	 0.0	 0.0	 2	    1.00000	    0.00000	 20.0	 2	    1.10000	    0.90000;
	66	 1	 0.10	 -0.01	 0.0	 0.0	 2	    1.00000	    0.00000	 138.0	 2	    1.10000	    0.90000;
	67	 1	 7.58	 0.96	 0.0	 0.0	 2	    1.00000	    0.00000	 138.0	 2	    1.10000	    0.90000;
	68	 1	 0.10	 -4.87	 0.0	 0.0	 2	    1.00000	    0.00000	 138.0	 2	    1.10000	    0.90000;
	69	 1	 0.10	 -0.74	 0.0	 -19.16	 2	    1.00000	    0.00000	 138.0	 2	    1.10000	    0.90000;
	70	 1	 0.0	 0.0	 0.0	 0.02	 2	    1.00000	    0.00000	 138.0	 2	    1.10000	    0.90000;
	71	 1	 0.10	 -5.45	 0.0	 0.0	 2	    1.00000	    0.00000	 138.0	 2	    1.10000	    0.90000;
	72	 1	 2.20	 -3.95	 0.0	 0.0	 2	    1.00000	    0.00000	 138.0	 2	    1.10000	    0.90000;
	73	 1	 24.33	 7.09	 0.0	 8.15	 2	    1.00000	    0.00000	 138.0	 2	    1.10000	    0.90000;
	74	 1	 0.0	 0.0	 0.0	 0.0	 2	    1.00000	    0.00000	 138.0	 2	    1.10000	    0.90000;
	75	 1	 38.14	 17.98	 0.0	 3.66	 2	    1.00000	    0.00000	 138.0	 2	    1.10000	    0.90000;
	76	 1	 0.10	 -1.43	 0.0	 0.0	 2	    1.00000	    0.00000	 138.0	 2	    1.10000	    0.90000;
	77	 1	 0.10	 -0.87	 0.0	 2.04	 2	    1.00000	    0.00000	 138.0	 2	    1.10000	    0.90000;
	78	 1	 11.44	 4.56	 0.0	 4.24	 2	    1.00000	    0.00000	 138.0	 2	    1.10000	    0.90000;
	79	 1	 -0.57	 -3.27	 0.0	 0.0	 2	    1.00000	    0.00000	 138.0	 2	    1.10000	    0.90000;
	80	 1	 0.10	 -0.23	 0.0	 0.0	 2	    1.00000	    0.00000	 138.0	 2	    1.10000	    0.90000;
	81	 1	 47.22	 20.67	 0.0	 9.96	 2	    1.00000	    0.00000	 138.0	 2	    1.10000	    0.90000;
	82	 2	 0.0	 0.0	 0.0	 0.0	 2	    1.00000	    0.00000	 20.0	 2	    1.10000	    0.90000;
	83	 1	 0.10	 -2.37	 0.0	 0.0	 2	    1.00000	    0.00000	 138.0	 2	    1.10000	    0.90000;
	84	 1	 0.0	 0.0	 0.0	 0.0	 2	    1.00000	    0.00000	 138.0	 2	    1.10000	    0.90000;
	85	 1	 0.10	 -0.73	 0.0	 0.0	 2	    1.00000	    0.00000	 138.0	 2	    1.10000	    0.90000;
	86	 1	 54.98	 -9.33	 0.0	 10.65	 2	    1.00000	    0.00000	 138.0	 2	    1.10000	    0.90000;
	87	 1	 0.10	 -0.15	 0.0	 0.0	 2	    1.00000	    0.00000	 138.0	 2	    1.10000	    0.90000;
	88	 1	 0.10	 -1.55	 0.0	 0.0	 2	    1.00000	    0.00000	 138.0	 2	    1.10000	    0.90000;
	89	 2	 0.0	 0.0	 0.0	 -8.48	 2	    1.00000	    0.00000	 500.0	 2	    1.10000	    0.90000;
	90	 1	 18.03	 8.44	 0.0	 0.0	 2	    1.00000	    0.00000	 138.0	 2	    1.10000	    0.90000;
	91	 1	 39.53	 -28.65	 0.0	 0.0	 2	    1.00000	    0.00000	 138.0	 2	    1.10000	    0.90000;
	92	 1	 -0.57	 -1.00	 0.0	 0.0	 2	    1.00000	    0.00000	 138.0	 2	    1.10000	    0.90000;
	93	 1	 -0.57	 -4.29	 0.0	 0.0	 2	    1.00000	    0.00000	 138.0	 2	    1.10000	    0.90000;
	94	 1	 0.10	 -1.77	 0.0	 0.0	 2	    1.00000	    0.00000	 138.0	 2	    1.10000	    0.90000;
	95	 1	 15.11	 4.37	 0.0	 0.0	 2	    1.00000	    0.00000	 138.0	 2	    1.10000	    0.90000;
	96	 2	 0.0	 0.0	 0.0	 0.0	 2	    1.00000	    0.00000	 20.0	 2	    1.10000	    0.90000;
	97	 1	 -6.11	 1.53	 0.0	 0.0	 3	    1.00000	    0.00000	 138.0	 3	    1.10000	    0.90000;
	98	 1	 0.10	 -19.54	 0.0	 0.0	 3	    1.00000	    0.00000	 138.0	 3	    1.10000	    0.90000;
	99	 1	 0.10	 -26.52	 0.0	 0.0	 3	    1.00000	    0.00000	 138.0	 3	    1.10000	    0.90000;
	100	 1	 0.10	 -29.89	 0.0	 0.0	 3	    1.00000	    0.00000	 138.0	 3	    1.10000	    0.90000;
	101	 1	 0.10	 -22.93	 0.0	 0.0	 3	    1.00000	    0.00000	 138.0	 3	    1.10000	    0.90000;
	102	 1	 -8.41	 1.87	 0.0	 0.0	 3	    1.00000	    0.00000	 138.0	 3	    1.10000	    0.90000;
	103	 1	 0.10	 -15.60	 0.0	 0.0	 3	    1.00000	    0.00000	 138.0	 3	    1.10000	    0.90000;
	104	 1	 -19.62	 26.91	 0.0	 0.0	 3	    1.00000	    0.00000	 138.0	 3	    1.10000	    0.90000;
	105	 2	 -41.25	 13.02	 0.0	 16.09	 3	    1.00000	    0.00000	 138.0	 3	    1.10000	    0.90000;
	106	 1	 0.10	 -29.89	 0.0	 0.0	 3	    1.00000	    0.00000	 138.0	 3	    1.10000	    0.90000;
	107	 1	 43.83	 20.00	 0.0	 0.0	 3	    1.00000	    0.00000	 138.0	 3	    1.10000	    0.90000;
	108	 2	 0.0	 0.0	 0.0	 0.0	 3	    1.00000	    0.00000	 138.0	 3	    1.10000	    0.90000;
	109	 1	 0.13	 7.83	 0.0	 0.0	 3	    1.00000	    0.00000	 138.0	 3	    1.10000	    0.90000;
	110	 1	 0.10	 -1.89	 0.0	 0.0	 3	    1.00000	    0.00000	 138.0	 3	    1.10000	    0.90000;
	111	 1	 18.09	 18.27	 0.0	 0.0	 3	    1.00000	    0.00000	 138.0	 3	    1.10000	    0.90000;
	112	 1	 44.86	 21.10	 0.0	 0.0	 3	    1.00000	    0.00000	 138.0	 3	    1.10000	    0.90000;
	113	 1	 0.10	 -10.07	 0.0	 0.0	 3	    1.00000	    0.00000	 138.0	 3	    1.10000	    0.90000;
	114	 1	 0.0	 0.0	 0.0	 0.0	 3	    1.00000	    0.00000	 138.0	 3	    1.10000	    0.90000;
	115	 1	 -13.32	 19.44	 0.0	 0.0	 3	    1.00000	    0.00000	 138.0	 3	    1.10000	    0.90000;
	116	 1	 0.10	 0.00	 0.0	 0.0	 3	    1.00000	    0.00000	 138.0	 3	    1.10000	    0.90000;
	117	 2	 0.0	 0.0	 0.0	 0.0	 3	    1.00000	    0.00000	 138.0	 3	    1.10000	    0.90000;
	118	 1	 0.10	 -19.08	 0.0	 0.0	 3	    1.00000	    0.00000	 138.0	 3	    1.10000	    0.90000;
	119	 1	 0.0	 0.0	 0.0	 0.0	 3	    1.00000	    0.00000	 138.0	 3	    1.10000	    0.90000;
	120	 1	 49.40	 21.67	 0.0	 0.0	 3	    1.00000	    0.00000	 138.0	 3	    1.10000	    0.90000;
	121	 1	 36.61	 14.21	 0.0	 0.0	 3	    1.00000	    0.00000	 138.0	 3	    1.10000	    0.90000;
	122	 1	 13.72	 -10.96	 0.0	 0.0	 3	    1.00000	    0.00000	 138.0	 3	    1.10000	    0.90000;
	123	 1	 0.10	 -1.89	 0.0	 0.0	 3	    1.00000	    0.00000	 138.0	 3	    1.10000	    0.90000;
	124	 1	 0.10	 -4.32	 0.0	 0.0	 3	    1.00000	    0.00000	 138.0	 3	    1.10000	    0.90000;
	125	 1	 -0.67	 -3.25	 0.0	 0.0	 3	    1.00000	    0.00000	 138.0	 3	    1.10000	    0.90000;
	126	 2	 0.10	 -19.08	 0.0	 0.0	 3	    1.00000	    0.00000	 138.0	 3	    1.10000	    0.90000;
	127	 1	 0.0	 0.0	 0.0	 0.0	 4	    1.00000	    0.00000	 20.0	 4	    1.10000	    0.90000;
	128	 2	 276.58	 27.62	 0.0	 -49.77	 4	    1.00000	    0.00000	 500.0	 4	    1.10000	    0.90000;
	129	 2	 0.0	 0.0	 0.0	 0.0	 4	    1.00000	    0.00000	 20.0	 4	    1.10000	    0.90000;
	130	 2	 0.0	 0.0	 0.0	 0.0	 4	    1.00000	    0.00000	 20.0	 4	    1.10000	    0.90000;
	131	 2	 0.0	 0.0	 0.0	 0.0	 4	    1.00000	    0.00000	 20.0	 4	    1.10000	    0.90000;
	132	 2	 0.0	 0.0	 0.0	 0.0	 4	    1.00000	    0.00000	 20.0	 4	    1.10000	    0.90000;
	133	 2	 0.0	 0.0	 0.0	 0.0	 4	    1.00000	    0.00000	 20.0	 4	    1.10000	    0.90000;
	134	 2	 0.0	 0.0	 0.0	 0.0	 4	    1.00000	    0.00000	 20.0	 4	    1.10000	    0.90000;
	135	 1	 300.96	 127.87	 0.0	 0.0	 4	    1.00000	    0.00000	 500.0	 4	    1.10000	    0.90000;
	136	 2	 0.0	 0.0	 0.0	 0.0	 4	    1.00000	    0.00000	 20.0	 4	    1.10000	    0.90000;
	137	 1	 17.32	 -9.92	 0.0	 0.0	 4	    1.00000	    0.00000	 500.0	 4	    1.10000	    0.90000;
	138	 1	 1.81	 40.91	 0.0	 0.0	 4	    1.00000	    0.00000	 500.0	 4	    1.10000	    0.90000;
	139	 1	 48.01	 1.82	 0.0	 0.0	 4	    1.00000	    0.00000	 345.0	 4	    1.10000	    0.90000;
	140	 1	 378.02	 3.44	 0.0	 0.0	 4	    1.00000	    0.00000	 500.0	 4	    1.10000	    0.90000;
	141	 1	 119.17	 1.70	 0.0	 0.0	 4	    1.00000	    0.00000	 345.0	 4	    1.10000	    0.90000;
	142	 2	 0.0	 0.0	 0.0	 0.0	 4	    1.00000	    0.00000	 500.0	 4	    1.10000	    0.90000;
	143	 2	 398.17	 131.03	 0.0	 0.0	 4	    1.00000	    0.00000	 500.0	 4	    1.10000	    0.90000;
	144	 1	 300.20	 -33.04	 0.0	 0.0	 4	    1.00000	    0.00000	 500.0	 4	    1.10000	    0.90000;
	145	 1	 207.95	 -48.04	 0.0	 0.0	 4	    1.00000	    0.00000	 500.0	 4	    1.10000	    0.90000;
	146	 2	 34.44	 -34.16	 0.0	 16.08	 4	    1.00000	    0.00000	 500.0	 4	    1.10000	    0.90000;
	147	 1	 25.54	 -11.15	 0.0	 0.0	 4	    1.00000	    0.00000	 345.0	 4	    1.10000	    0.90000;
	148	 1	 0.0	 0.0	 0.0	 0.0	 4	    1.00000	    0.00000	 20.0	 4	    1.10000	    0.90000;
	149	 1	 40.64	 0.69	 0.0	 5.66	 4	    1.00000	    0.00000	 345.0	 4	    1.10000	    0.90000;
	150	 2	 14.32	 -83.22	 0.0	 -23.72	 4	    1.00000	    0.00000	 500.0	 4	    1.10000	    0.90000;
	151	 2	 248.86	 22.18	 0.0	 0.0	 4	    1.00000	    0.00000	 345.0	 4	    1.10000	    0.90000;
	152	 1	 2.26	 56.78	 0.0	 0.0	 4	    1.00000	    0.00000	 500.0	 4	    1.10000	    0.90000;
	153	 2	 0.0	 0.0	 0.0	 0.0	 4	    1.00000	    0.00000	 20.0	 4	    1.10000	    0.90000;
	154	 1	 137.44	 39.28	 0.0	 0.0	 4	    1.00000	    0.00000	 345.0	 4	    1.10000	    0.90000;
	155	 1	 493.40	 -4.59	 0.0	 0.0	 4	    1.00000	    0.00000	 500.0	 4	    1.10000	    0.90000;
	156	 1	 91.69	 13.96	 0.0	 0.0	 4	    1.00000	    0.00000	 345.0	 4	    1.10000	    0.90000;
	157	 2	 0.0	 0.0	 0.0	 0.0	 4	    1.00000	    0.00000	 20.0	 4	    1.10000	    0.90000;
	158	 1	 832.54	 11.09	 0.0	 0.0	 4	    1.00000	    0.00000	 345.0	 4	    1.10000	    0.90000;
	159	 1	 0.0	 0.0	 0.0	 0.0	 4	    1.00000	    0.00000	 20.0	 4	    1.10000	    0.90000;
	160	 1	 912.31	 45.83	 0.0	 0.0	 4	    1.00000	    0.00000	 345.0	 4	    1.10000	    0.90000;
	161	 1	 0.0	 0.0	 0.0	 0.0	 4	    1.00000	    0.00000	 20.0	 4	    1.10000	    0.90000;
	162	 1	 0.0	 0.0	 0.0	 0.0	 4	    1.00000	    0.00000	 20.0	 4	    1.10000	    0.90000;
	163	 2	 0.0	 0.0	 0.0	 0.0	 4	    1.00000	    0.00000	 20.0	 4	    1.10000	    0.90000;
	164	 1	 0.0	 0.0	 0.0	 0.0	 4	    1.00000	    0.00000	 20.0	 4	    1.10000	    0.90000;
	165	 2	 0.0	 0.0	 0.0	 0.0	 4	    1.00000	    0.00000	 20.0	 4	    1.10000	    0.90000;
	166	 2	 0.0	 0.0	 0.0	 0.0	 4	    1.00000	    0.00000	 20.0	 4	    1.10000	    0.90000;
	167	 2	 0.0	 0.0	 0.0	 0.0	 4	    1.00000	    0.00000	 20.0	 4	    1.10000	    0.90000;
	168	 2	 0.0	 0.0	 0.0	 0.0	 4	    1.00000	    0.00000	 20.0	 4	    1.10000	    0.90000;
	169	 2	 0.0	 0.0	 0.0	 0.0	 4	    1.00000	    0.00000	 20.0	 4	    1.10000	    0.90000;
	170	 1	 -24.49	 95.16	 0.0	 11.38	 4	    1.00000	    0.00000	 500.0	 4	    1.10000	    0.90000;
	171	 1	 179.74	 -1.65	 0.0	 0.0	 4	    1.00000	    0.00000	 345.0	 4	    1.10000	    0.90000;
	172	 1	 80.59	 -11.62	 0.0	 0.0	 4	    1.00000	    0.00000	 345.0	 4	    1.10000	    0.90000;
	173	 1	 366.60	 -3.38	 0.0	 0.0	 4	    1.00000	    0.00000	 500.0	 4	    1.10000	    0.90000;
	174	 1	 94.97	 5.18	 0.0	 0.0	 4	    1.00000	    0.00000	 345.0	 4	    1.10000	    0.90000;
	175	 1	 31.59	 -20.02	 0.0	 0.0	 4	    1.00000	    0.00000	 500.0	 4	    1.10000	    0.90000;
	176	 2	 0.0	 0.0	 0.0	 0.0	 4	    1.00000	    0.00000	 20.0	 4	    1.10000	    0.90000;
	177	 1	 590.66	 10.66	 0.0	 0.0	 4	    1.00000	    0.00000	 345.0	 4	    1.10000	    0.90000;
	178	 1	 19.12	 -14.57	 0.0	 0.0	 4	    1.00000	    0.00000	 500.0	 4	    1.10000	    0.90000;
	179	 2	 0.0	 0.0	 0.0	 0.0	 4	    1.00000	    0.00000	 20.0	 4	    1.10000	    0.90000;
	180	 2	 0.0	 0.0	 0.0	 0.0	 4	    1.00000	    0.00000	 20.0	 4	    1.10000	    0.90000;
	181	 1	 24.33	 -74.57	 0.0	 0.0	 4	    1.00000	    0.00000	 500.0	 4	    1.10000	    0.90000;
	182	 2	 0.0	 0.0	 0.0	 0.0	 4	    1.00000	    0.00000	 20.0	 4	    1.10000	    0.90000;
	183	 1	 0.0	 0.0	 0.0	 0.0	 4	    1.00000	    0.00000	 20.0	 4	    1.10000	    0.90000;
	184	 1	 0.0	 0.0	 0.0	 0.0	 4	    1.00000	    0.00000	 20.0	 4	    1.10000	    0.90000;
	185	 2	 0.0	 0.0	 0.0	 0.0	 4	    1.00000	    0.00000	 20.0	 4	    1.10000	    0.90000;
	186	 1	 88.65	 4.64	 0.0	 0.0	 4	    1.00000	    0.00000	 345.0	 4	    1.10000	    0.90000;
	187	 2	 0.0	 0.0	 0.0	 0.0	 4	    1.00000	    0.00000	 20.0	 4	    1.10000	    0.90000;
	188	 2	 0.0	 0.0	 0.0	 0.0	 4	    1.00000	    0.00000	 20.0	 4	    1.10000	    0.90000;
	189	 2	 0.0	 0.0	 0.0	 0.0	 4	    1.00000	    0.00000	 20.0	 4	    1.10000	    0.90000;
	190	 1	 0.0	 0.0	 0.0	 0.0	 4	    1.00000	    0.00000	 20.0	 4	    1.10000	    0.90000;
	191	 1	 0.0	 0.0	 0.0	 0.0	 4	    1.00000	    0.00000	 20.0	 4	    1.10000	    0.90000;
	192	 1	 0.0	 0.0	 0.0	 0.0	 4	    1.00000	    0.00000	 20.0	 4	    1.10000	    0.90000;
	193	 1	 186.58	 10.03	 0.0	 0.0	 4	    1.00000	    0.00000	 345.0	 4	    1.10000	    0.90000;
	194	 2	 0.0	 0.0	 0.0	 0.0	 4	    1.00000	    0.00000	 500.0	 4	    1.10000	    0.90000;
	195	 1	 245.44	 12.96	 0.0	 0.0	 4	    1.00000	    0.00000	 345.0	 4	    1.10000	    0.90000;
	196	 1	 0.0	 0.0	 0.0	 0.0	 4	    1.00000	    0.00000	 20.0	 4	    1.10000	    0.90000;
	197	 1	 0.0	 0.0	 0.0	 0.0	 4	    1.00000	    0.00000	 20.0	 4	    1.10000	    0.90000;
	198	 1	 0.0	 0.0	 0.0	 0.0	 4	    1.00000	    0.00000	 20.0	 4	    1.10000	    0.90000;
	199	 1	 0.0	 0.0	 0.0	 0.0	 4	    1.00000	    0.00000	 20.0	 4	    1.10000	    0.90000;
	200	 1	 0.0	 0.0	 0.0	 0.0	 4	    1.00000	    0.00000	 20.0	 4	    1.10000	    0.90000;
...
];

%% generator data
%	bus	Pg	Qg	Qmax	Qmin	Vg	mBase	status	Pmax	Pmin	Pc1	Pc2	Qc1min	Qc1max	Qc2min	Qc2max	ramp_agc	ramp_10	ramp_30	ramp_q	apf
mpc.gen = [
	2	 30.65	 0.0	 35.83	 -35.83	 1.0	 100.0	 1	 51	 10.3	 0.0	 0.0	 0.0	 0.0	 0.0	 0.0	 0.0	 0.0	 0.0	 0.0	 100.0; % NG
	6	 79.7175	 0.0	 74.0	 -74.0	 1.0	 100.0	 1	 148	 11.435	 0.0	 0.0	 0.0	 0.0	 0.0	 0.0	 0.0	 0.0	 0.0	 0.0	 100.0; % NG
	10	 182.1425	 0.0	 500.0	 -500.0	 1.0	 100.0	 1	 326	 38.285	 0.0	 0.0	 0.0	 0.0	 0.0	 0.0	 0.0	 0.0	 0.0	 0.0	 115.087; % NG
	12	 0.0	 0.0	 121.0	 -121.0	 1.0	 100.0	 0	 242	 8.6	 0.0	 0.0	 0.0	 0.0	 0.0	 0.0	 0.0	 0.0	 0.0	 0.0	 32.205; % NG
	15	 33.15	 0.0	 35.83	 -35.83	 1.0	 100.0	 1	 56	 10.3	 0.0	 0.0	 0.0	 0.0	 0.0	 0.0	 0.0	 0.0	 0.0	 0.0	 100.0; % COW
	16	 27.2175	 0.0	 35.79	 -35.79	 1.0	 100.0	 1	 43	 11.435	 0.0	 0.0	 0.0	 0.0	 0.0	 0.0	 0.0	 0.0	 0.0	 0.0	 100.0; % NG
	17	 0.0	 0.0	 33.33	 -33.33	 1.0	 100.0	 0	 35	 15.745	 0.0	 0.0	 0.0	 0.0	 0.0	 0.0	 0.0	 0.0	 0.0	 0.0	 46.487; % NG
	24	 25.7175	 0.0	 35.79	 -35.79	 1.0	 100.0	 1	 40	 11.435	 0.0	 0.0	 0.0	 0.0	 0.0	 0.0	 0.0	 0.0	 0.0	 0.0	 100.0; % NG
	26	 56.15	 0.0	 51.0	 -51.0	 1.0	 100.0	 1	 102	 10.3	 0.0	 0.0	 0.0	 0.0	 0.0	 0.0	 0.0	 0.0	 0.0	 0.0	 100.0; % COW
	27	 38.2175	 0.0	 35.79	 -35.79	 1.0	 100.0	 1	 65	 11.435	 0.0	 0.0	 0.0	 0.0	 0.0	 0.0	 0.0	 0.0	 0.0	 0.0	 100.0; % PEL
	30	 0.0	 0.0	 95.0	 -95.0	 1.0	 100.0	 0	 190	 8.105	 0.0	 0.0	 0.0	 0.0	 0.0	 0.0	 0.0	 0.0	 0.0	 0.0	 31.215; % NG
	34	 24.2175	 0.0	 35.79	 -35.79	 1.0	 100.0	 1	 37	 11.435	 0.0	 0.0	 0.0	 0.0	 0.0	 0.0	 0.0	 0.0	 0.0	 0.0	 100.0; % COW
	44	 42.2175	 0.0	 37.0	 -37.0	 1.0	 100.0	 1	 73	 11.435	 0.0	 0.0	 0.0	 0.0	 0.0	 0.0	 0.0	 0.0	 0.0	 0.0	 100.0; % NG
	45	 26.15	 0.0	 35.83	 -35.83	 1.0	 100.0	 1	 42	 10.3	 0.0	 0.0	 0.0	 0.0	 0.0	 0.0	 0.0	 0.0	 0.0	 0.0	 100.0; % NG
	64	 549.9425	 0.0	 500.0	 -500.0	 1.0	 100.0	 1	 824	 275.885	 0.0	 0.0	 0.0	 0.0	 0.0	 0.0	 0.0	 0.0	 0.0	 0.0	 1195.7679; % COW
	65	 10.2975	 0.0	 60.05	 -60.05	 1.0	 100.0	 1	 15	 5.595	 0.0	 0.0	 0.0	 0.0	 0.0	 0.0	 0.0	 0.0	 0.0	 0.0	 100.0; % NG
	82	 18.2975	 0.0	 60.05	 -60.05	 1.0	 100.0	 1	 31	 5.595	 0.0	 0.0	 0.0	 0.0	 0.0	 0.0	 0.0	 0.0	 0.0	 0.0	 100.0; % COW
	89	 31.5	 14.97	 149.7	 -119.76	 1.0	 100.0	 1	 63	 0.0	 0.0	 0.0	 0.0	 0.0	 0.0	 0.0	 0.0	 0.0	 0.0	 0.0	 274.0; % COW
	96	 18.2975	 0.0	 60.05	 -60.05	 1.0	 100.0	 1	 31	 5.595	 0.0	 0.0	 0.0	 0.0	 0.0	 0.0	 0.0	 0.0	 0.0	 0.0	 100.0; % NG
	105	 0.0	 0.0	 33.33	 -33.33	 1.0	 100.0	 0	 56	 0.915	 0.0	 0.0	 0.0	 0.0	 0.0	 0.0	 0.0	 0.0	 0.0	 0.0	 297.0; % NG
	108	 62.5	 0.0	 63.0	 -63.0	 1.0	 100.0	 1	 125	 0.0	 0.0	 0.0	 0.0	 0.0	 0.0	 0.0	 0.0	 0.0	 0.0	 0.0	 288.0; % NG
	117	 121.5	 0.0	 122.0	 -122.0	 1.0	 100.0	 1	 243	 0.0	 0.0	 0.0	 0.0	 0.0	 0.0	 0.0	 0.0	 0.0	 0.0	 0.0	 282.0; % NG
	126	 72.9725	 0.0	 500.0	 -500.0	 1.0	 100.0	 1	 126	 19.945	 0.0	 0.0	 0.0	 0.0	 0.0	 0.0	 0.0	 0.0	 0.0	 0.0	 92.804; % NG
	128	 0.0	 0.0	 86.0	 -86.0	 1.0	 100.0	 0	 171	 150.065	 0.0	 0.0	 0.0	 0.0	 0.0	 0.0	 0.0	 0.0	 0.0	 0.0	 315.13; % NG
	129	 59.02	 0.0	 45.0	 -45.0	 1.0	 200.0	 1	 90	 28.04	 0.0	 0.0	 0.0	 0.0	 0.0	 0.0	 0.0	 0.0	 0.0	 0.0	 200.0; % NG
	130	 101.52	 0.0	 88.0	 -88.0	 1.0	 200.0	 1	 175	 28.04	 0.0	 0.0	 0.0	 0.0	 0.0	 0.0	 0.0	 0.0	 0.0	 0.0	 200.0; % NG
	131	 68.52	 0.0	 55.0	 -55.0	 1.0	 200.0	 1	 109	 28.04	 0.0	 0.0	 0.0	 0.0	 0.0	 0.0	 0.0	 0.0	 0.0	 0.0	 200.0; % NG
	132	 106.02	 0.0	 92.0	 -92.0	 1.0	 200.0	 1	 184	 28.04	 0.0	 0.0	 0.0	 0.0	 0.0	 0.0	 0.0	 0.0	 0.0	 0.0	 200.0; % COW
	133	 71.52	 0.0	 58.0	 -58.0	 1.0	 200.0	 1	 115	 28.04	 0.0	 0.0	 0.0	 0.0	 0.0	 0.0	 0.0	 0.0	 0.0	 0.0	 200.0; % COW
	134	 93.02	 0.0	 79.0	 -79.0	 1.0	 200.0	 1	 158	 28.04	 0.0	 0.0	 0.0	 0.0	 0.0	 0.0	 0.0	 0.0	 0.0	 0.0	 200.0; % NG
	136	 68.2175	 0.0	 63.0	 -63.0	 1.0	 100.0	 1	 126	 10.435	 0.0	 0.0	 0.0	 0.0	 0.0	 0.0	 0.0	 0.0	 0.0	 0.0	 100.0; % NG
	142	 440.5	 0.0	 441.0	 -441.0	 1.0	 100.0	 1	 881	 0.0	 0.0	 0.0	 0.0	 0.0	 0.0	 0.0	 0.0	 0.0	 0.0	 0.0	 259.0; % NG
	143	 592.1325	 0.0	 500.0	 -500.0	 1.0	 100.0	 1	 891	 293.265	 0.0	 0.0	 0.0	 0.0	 0.0	 0.0	 0.0	 0.0	 0.0	 0.0	 835.31; % COW
	146	 0.0	 0.0	 33.33	 -33.33	 1.0	 100.0	 0	 4	 238.15	 0.0	 0.0	 0.0	 0.0	 0.0	 0.0	 0.0	 0.0	 0.0	 0.0	 253.152; % NG
	150	 0.0	 0.0	 63.0	 -63.0	 1.0	 100.0	 0	 126	 71.79	 0.0	 0.0	 0.0	 0.0	 0.0	 0.0	 0.0	 0.0	 0.0	 0.0	 158.58; % COW
	151	 95.1425	 0.0	 500.0	 -500.0	 1.0	 100.0	 1	 190	 0.285	 0.0	 0.0	 0.0	 0.0	 0.0	 0.0	 0.0	 0.0	 0.0	 0.0	 49.372; % NG
	153	 241.0	 0.0	 216.0	 -216.0	 1.0	 600.0	 1	 432	 50.0	 0.0	 0.0	 0.0	 0.0	 0.0	 0.0	 0.0	 0.0	 0.0	 0.0	 600.0; % COW
	157	 181.0	 0.0	 156.0	 -156.0	 1.0	 600.0	 1	 312	 50.0	 0.0	 0.0	 0.0	 0.0	 0.0	 0.0	 0.0	 0.0	 0.0	 0.0	 600.0; % NG
	163	 37.975	 0.0	 32.0	 -32.0	 1.0	 100.0	 1	 63	 12.95	 0.0	 0.0	 0.0	 0.0	 0.0	 0.0	 0.0	 0.0	 0.0	 0.0	 100.0; % COW
	165	 22.0575	 0.0	 22.31	 -22.31	 1.0	 100.0	 1	 37	 7.115	 0.0	 0.0	 0.0	 0.0	 0.0	 0.0	 0.0	 0.0	 0.0	 0.0	 100.0; % COW
	166	 257.5	 0.0	 208.0	 -208.0	 1.0	 800.0	 1	 415	 100.0	 0.0	 0.0	 0.0	 0.0	 0.0	 0.0	 0.0	 0.0	 0.0	 0.0	 800.0; % COW
	167	 396.0	 0.0	 346.0	 -346.0	 1.0	 800.0	 1	 692	 100.0	 0.0	 0.0	 0.0	 0.0	 0.0	 0.0	 0.0	 0.0	 0.0	 0.0	 800.0; % COW
	168	 317.5	 0.0	 268.0	 -268.0	 1.0	 800.0	 1	 535	 100.0	 0.0	 0.0	 0.0	 0.0	 0.0	 0.0	 0.0	 0.0	 0.0	 0.0	 800.0; % COW
	169	 432.5	 0.0	 383.0	 -383.0	 1.0	 800.0	 1	 765	 100.0	 0.0	 0.0	 0.0	 0.0	 0.0	 0.0	 0.0	 0.0	 0.0	 0.0	 800.0; % NUC
	176	 222.5	 0.0	 173.0	 -173.0	 1.0	 700.0	 1	 345	 100.0	 0.0	 0.0	 0.0	 0.0	 0.0	 0.0	 0.0	 0.0	 0.0	 0.0	 700.0; % COW
	179	 72.02	 0.0	 58.0	 -58.0	 1.0	 200.0	 1	 116	 28.04	 0.0	 0.0	 0.0	 0.0	 0.0	 0.0	 0.0	 0.0	 0.0	 0.0	 200.0; % NG
	180	 103.02	 0.0	 89.0	 -89.0	 1.0	 200.0	 1	 178	 28.04	 0.0	 0.0	 0.0	 0.0	 0.0	 0.0	 0.0	 0.0	 0.0	 0.0	 200.0; % NG
	182	 204.0	 0.0	 179.0	 -179.0	 1.0	 600.0	 1	 358	 50.0	 0.0	 0.0	 0.0	 0.0	 0.0	 0.0	 0.0	 0.0	 0.0	 0.0	 600.0; % COW
	185	 18.295	 0.0	 17.0	 -17.0	 1.0	 100.0	 1	 33	 3.59	 0.0	 0.0	 0.0	 0.0	 0.0	 0.0	 0.0	 0.0	 0.0	 0.0	 100.0; % NG
	187	 267.5	 0.0	 218.0	 -218.0	 1.0	 700.0	 1	 435	 100.0	 0.0	 0.0	 0.0	 0.0	 0.0	 0.0	 0.0	 0.0	 0.0	 0.0	 700.0; % COW
	188	 236.0	 0.0	 186.0	 -186.0	 1.0	 700.0	 1	 372	 100.0	 0.0	 0.0	 0.0	 0.0	 0.0	 0.0	 0.0	 0.0	 0.0	 0.0	 700.0; % COW
	189	 505.5	 0.0	 456.0	 -456.0	 1.0	 700.0	 1	 911	 100.0	 0.0	 0.0	 0.0	 0.0	 0.0	 0.0	 0.0	 0.0	 0.0	 0.0	 700.0; % COW
	194	 509.0	 0.0	 643.2	 -643.2	 1.0	 100.0	 1	 1018	 0.0	 0.0	 0.0	 0.0	 0.0	 0.0	 0.0	 0.0	 0.0	 0.0	 0.0	 288.0; % NG
	202	 0.0	 0.0	 33.33	 -33.33	 1.0	 100.0	 0	 59	 29.84	 0.0	 0.0	 0.0	 0.0	 0.0	 0.0	 0.0	 0.0	 0.0	 0.0	 74.677; % PEL
	204	 136.0	 0.0	 111.0	 -111.0	 1.0	 600.0	 1	 222	 50.0	 0.0	 0.0	 0.0	 0.0	 0.0	 0.0	 0.0	 0.0	 0.0	 0.0	 600.0; % COW
	210	 22.15	 0.0	 19.0	 -19.0	 1.0	 100.0	 1	 38	 6.3	 0.0	 0.0	 0.0	 0.0	 0.0	 0.0	 0.0	 0.0	 0.0	 0.0	 100.0; % COW
	213	 42.9	 0.0	 40.0	 -40.0	 1.0	 100.0	 1	 79	 6.8	 0.0	 0.0	 0.0	 0.0	 0.0	 0.0	 0.0	 0.0	 0.0	 0.0	 100.0; % NG
	216	 320.455	 0.0	 500.0	 -500.0	 1.0	 100.0	 1	 517	 123.91	 0.0	 0.0	 0.0	 0.0	 0.0	 0.0	 0.0	 0.0	 0.0	 0.0	 371.734; % NG
	224	 44.3975	 0.0	 41.0	 -41.0	 1.0	 100.0	 1	 82	 6.795	 0.0	 0.0	 0.0	 0.0	 0.0	 0.0	 0.0	 0.0	 0.0	 0.0	 100.0; % NG
	227	 142.0	 0.0	 440.92	 -440.92	 1.0	 100.0	 1	 284	 0.0	 0.0	 0.0	 0.0	 0.0	 0.0	 0.0	 0.0	 0.0	 0.0	 0.0	 264.0; % NG
	227	 397.46	 0.0	 500.0	 -500.0	 1.0	 100.0	 1	 666	 128.92	 0.0	 0.0	 0.0	 0.0	 0.0	 0.0	 0.0	 0.0	 0.0	 0.0	 386.761; % NG
	229	 69.9775	 0.0	 58.0	 -58.0	 1.0	 200.0	 1	 115	 24.955	 0.0	 0.0	 0.0	 0.0	 0.0	 0.0	 0.0	 0.0	 0.0	 0.0	 200.0; % NG
	230	 23.0625	 0.0	 24.93	 -24.93	 1.0	 100.0	 1	 37	 9.125	 0.0	 0.0	 0.0	 0.0	 0.0	 0.0	 0.0	 0.0	 0.0	 0.0	 100.0; % PEL
	232	 37.2275	 0.0	 34.0	 -34.0	 1.0	 100.0	 1	 67	 7.455	 0.0	 0.0	 0.0	 0.0	 0.0	 0.0	 0.0	 0.0	 0.0	 0.0	 100.0; % COW
	237	 114.155	 0.0	 90.0	 -90.0	 1.0	 300.0	 1	 179	 49.31	 0.0	 0.0	 0.0	 0.0	 0.0	 0.0	 0.0	 0.0	 0.0	 0.0	 300.0; % NG
	238	 52.3125	 0.0	 49.0	 -49.0	 1.0	 100.0	 1	 97	 7.625	 0.0	 0.0	 0.0	 0.0	 0.0	 0.0	 0.0	 0.0	 0.0	 0.0	 100.0; % NG
	239	 594.5	 0.0	 545.0	 -545.0	 1.0	 800.0	 1	 1089	 100.0	 0.0	 0.0	 0.0	 0.0	 0.0	 0.0	 0.0	 0.0	 0.0	 0.0	 800.0; % NUC
	242	 66.76	 0.0	 500.0	 -500.0	 1.0	 100.0	 1	 118	 15.52	 0.0	 0.0	 0.0	 0.0	 0.0	 0.0	 0.0	 0.0	 0.0	 0.0	 59.838; % NG
	244	 0.0	 0.0	 33.33	 -33.33	 1.0	 100.0	 0	 4	 385.96	 0.0	 0.0	 0.0	 0.0	 0.0	 0.0	 0.0	 0.0	 0.0	 0.0	 400.964; % COW
	247	 83.6475	 0.0	 500.0	 -500.0	 1.0	 100.0	 1	 167	 0.295	 0.0	 0.0	 0.0	 0.0	 0.0	 0.0	 0.0	 0.0	 0.0	 0.0	 26.389; % NG
	248	 350.01	 0.0	 500.0	 -500.0	 1.0	 100.0	 1	 565	 135.02	 0.0	 0.0	 0.0	 0.0	 0.0	 0.0	 0.0	 0.0	 0.0	 0.0	 405.056; % NG
	255	 32.5625	 0.0	 28.0	 -28.0	 1.0	 100.0	 1	 56	 9.125	 0.0	 0.0	 0.0	 0.0	 0.0	 0.0	 0.0	 0.0	 0.0	 0.0	 100.0; % NG
	256	 80.4775	 0.0	 68.0	 -68.0	 1.0	 200.0	 1	 136	 24.955	 0.0	 0.0	 0.0	 0.0	 0.0	 0.0	 0.0	 0.0	 0.0	 0.0	 200.0; % NG
	258	 65.2275	 0.0	 62.0	 -62.0	 1.0	 100.0	 1	 123	 7.455	 0.0	 0.0	 0.0	 0.0	 0.0	 0.0	 0.0	 0.0	 0.0	 0.0	 100.0; % COW
	261	 92.4775	 0.0	 80.0	 -80.0	 1.0	 200.0	 1	 160	 24.955	 0.0	 0.0	 0.0	 0.0	 0.0	 0.0	 0.0	 0.0	 0.0	 0.0	 200.0; % NG
	269	 20.3975	 0.0	 22.36	 -22.36	 1.0	 100.0	 1	 34	 6.795	 0.0	 0.0	 0.0	 0.0	 0.0	 0.0	 0.0	 0.0	 0.0	 0.0	 100.0; % NG
	270	 197.0	 23.0	 193.0	 -147.0	 1.0	 800.0	 1	 294	 100.0	 0.0	 0.0	 0.0	 0.0	 0.0	 0.0	 0.0	 0.0	 0.0	 0.0	 800.0; % COW
	273	 23.8125	 0.0	 22.17	 -22.17	 1.0	 100.0	 1	 40	 7.625	 0.0	 0.0	 0.0	 0.0	 0.0	 0.0	 0.0	 0.0	 0.0	 0.0	 100.0; % NG
	279	 53.225	 0.0	 48.0	 -48.0	 1.0	 100.0	 1	 96	 10.45	 0.0	 0.0	 0.0	 0.0	 0.0	 0.0	 0.0	 0.0	 0.0	 0.0	 100.0; % NG
	280	 30.7025	 0.0	 36.4	 -36.4	 1.0	 100.0	 1	 53	 8.405	 0.0	 0.0	 0.0	 0.0	 0.0	 0.0	 0.0	 0.0	 0.0	 0.0	 100.0; % NG
	284	 228.04	 0.0	 500.0	 -500.0	 1.0	 100.0	 1	 360	 96.08	 0.0	 0.0	 0.0	 0.0	 0.0	 0.0	 0.0	 0.0	 0.0	 0.0	 391.254; % NG
	289	 27.7125	 0.0	 24.0	 -24.0	 1.0	 100.0	 1	 48	 7.425	 0.0	 0.0	 0.0	 0.0	 0.0	 0.0	 0.0	 0.0	 0.0	 0.0	 100.0; % NG
	292	 72.2125	 0.0	 69.0	 -69.0	 1.0	 100.0	 1	 137	 7.425	 0.0	 0.0	 0.0	 0.0	 0.0	 0.0	 0.0	 0.0	 0.0	 0.0	 100.0; % NG
	293	 80.7125	 0.0	 77.0	 -77.0	 1.0	 100.0	 1	 154	 7.425	 0.0	 0.0	 0.0	 0.0	 0.0	 0.0	 0.0	 0.0	 0.0	 0.0	 100.0; % COW
	295	 68.225	 0.0	 63.0	 -63.0	 1.0	 100.0	 1	 126	 10.45	 0.0	 0.0	 0.0	 0.0	 0.0	 0.0	 0.0	 0.0	 0.0	 0.0	 100.0; % COW
	300	 28.9675	 0.0	 29.48	 -29.48	 1.0	 100.0	 1	 49	 8.935	 0.0	 0.0	 0.0	 0.0	 0.0	 0.0	 0.0	 0.0	 0.0	 0.0	 100.0; % NG
	301	 30.4675	 0.0	 29.48	 -29.48	 1.0	 100.0	 1	 52	 8.935	 0.0	 0.0	 0.0	 0.0	 0.0	 0.0	 0.0	 0.0	 0.0	 0.0	 100.0; % COW
	302	 74.0	 0.0	 204.62	 -204.62	 1.0	 100.0	 1	 148	 0.0	 0.0	 0.0	 0.0	 0.0	 0.0	 0.0	 0.0	 0.0	 0.0	 0.0	 278.0; % NG
	302	 1063.685	 0.0	 793.0	 -793.0	 1.0	 100.0	 1	 1585	 542.37	 0.0	 0.0	 0.0	 0.0	 0.0	 0.0	 0.0	 0.0	 0.0	 0.0	 1627.1121; % COW
	303	 40.2425	 0.0	 56.99	 -56.99	 1.0	 100.0	 1	 73	 7.485	 0.0	 0.0	 0.0	 0.0	 0.0	 0.0	 0.0	 0.0	 0.0	 0.0	 100.0; % COW
	306	 54.5875	 0.0	 52.0	 -52.0	 1.0	 100.0	 1	 103	 6.175	 0.0	 0.0	 0.0	 0.0	 0.0	 0.0	 0.0	 0.0	 0.0	 0.0	 100.0; % NG
	307	 28.5875	 0.0	 43.22	 -43.22	 1.0	 100.0	 1	 51	 6.175	 0.0	 0.0	 0.0	 0.0	 0.0	 0.0	 0.0	 0.0	 0.0	 0.0	 100.0; % NG
	308	 24.895	 0.0	 22.0	 -22.0	 1.0	 100.0	 1	 43	 6.79	 0.0	 0.0	 0.0	 0.0	 0.0	 0.0	 0.0	 0.0	 0.0	 0.0	 100.0; % NG
	313	 16.0875	 0.0	 43.22	 -43.22	 1.0	 100.0	 1	 26	 6.175	 0.0	 0.0	 0.0	 0.0	 0.0	 0.0	 0.0	 0.0	 0.0	 0.0	 100.0; % NG
	314	 0.0	 0.0	 33.33	 -33.33	 1.0	 100.0	 0	 37	 33.765	 0.0	 0.0	 0.0	 0.0	 0.0	 0.0	 0.0	 0.0	 0.0	 0.0	 82.526; % NG
	317	 23.4675	 0.0	 29.48	 -29.48	 1.0	 100.0	 1	 38	 8.935	 0.0	 0.0	 0.0	 0.0	 0.0	 0.0	 0.0	 0.0	 0.0	 0.0	 100.0; % NG
	318	 50.9675	 0.0	 47.0	 -47.0	 1.0	 100.0	 1	 93	 8.935	 0.0	 0.0	 0.0	 0.0	 0.0	 0.0	 0.0	 0.0	 0.0	 0.0	 100.0; % COW
	322	 31.2425	 0.0	 56.99	 -56.99	 1.0	 100.0	 1	 55	 7.485	 0.0	 0.0	 0.0	 0.0	 0.0	 0.0	 0.0	 0.0	 0.0	 0.0	 100.0; % COW
	323	 73.7425	 0.0	 70.0	 -70.0	 1.0	 100.0	 1	 140	 7.485	 0.0	 0.0	 0.0	 0.0	 0.0	 0.0	 0.0	 0.0	 0.0	 0.0	 100.0; % NG
	324	 40.7125	 0.0	 37.0	 -37.0	 1.0	 100.0	 1	 74	 7.425	 0.0	 0.0	 0.0	 0.0	 0.0	 0.0	 0.0	 0.0	 0.0	 0.0	 100.0; % NG
	325	 21.2125	 0.0	 21.85	 -21.85	 1.0	 100.0	 1	 35	 7.425	 0.0	 0.0	 0.0	 0.0	 0.0	 0.0	 0.0	 0.0	 0.0	 0.0	 100.0; % COW
	326	 38.395	 0.0	 35.0	 -35.0	 1.0	 100.0	 1	 70	 6.79	 0.0	 0.0	 0.0	 0.0	 0.0	 0.0	 0.0	 0.0	 0.0	 0.0	 100.0; % NG
	327	 19.895	 0.0	 20.9	 -20.9	 1.0	 100.0	 1	 33	 6.79	 0.0	 0.0	 0.0	 0.0	 0.0	 0.0	 0.0	 0.0	 0.0	 0.0	 100.0; % NG
	328	 34.2125	 0.0	 31.0	 -31.0	 1.0	 100.0	 1	 61	 7.425	 0.0	 0.0	 0.0	 0.0	 0.0	 0.0	 0.0	 0.0	 0.0	 0.0	 100.0; % COW
	334	 33.0	 0.0	 33.0	 -33.0	 1.0	 100.0	 1	 66	 0.0	 0.0	 0.0	 0.0	 0.0	 0.0	 0.0	 0.0	 0.0	 0.0	 0.0	 37.8; % PEL
	335	 48.26	 0.0	 500.0	 -500.0	 1.0	 100.0	 1	 80	 16.52	 0.0	 0.0	 0.0	 0.0	 0.0	 0.0	 0.0	 0.0	 0.0	 0.0	 54.645; % NG
	336	 37.76	 0.0	 500.0	 -500.0	 1.0	 100.0	 1	 59	 16.52	 0.0	 0.0	 0.0	 0.0	 0.0	 0.0	 0.0	 0.0	 0.0	 0.0	 54.645; % PEL
	339	 0.0	 0.0	 41.0	 -41.0	 1.0	 100.0	 0	 82	 8.955	 0.0	 0.0	 0.0	 0.0	 0.0	 0.0	 0.0	 0.0	 0.0	 0.0	 32.912; % PEL
	343	 25.0	 0.0	 25.78	 -25.78	 1.0	 100.0	 1	 50	 0.0	 0.0	 0.0	 0.0	 0.0	 0.0	 0.0	 0.0	 0.0	 0.0	 0.0	 35.812; % PEL
	345	 35.5	 0.0	 36.0	 -36.0	 1.0	 100.0	 1	 71	 0.0	 0.0	 0.0	 0.0	 0.0	 0.0	 0.0	 0.0	 0.0	 0.0	 0.0	 46.875; % PEL
	347	 43.5	 0.0	 44.0	 -44.0	 1.0	 100.0	 1	 87	 0.0	 0.0	 0.0	 0.0	 0.0	 0.0	 0.0	 0.0	 0.0	 0.0	 0.0	 46.875; % NG
	349	 33.0	 0.0	 44.71	 -44.71	 1.0	 100.0	 1	 66	 0.0	 0.0	 0.0	 0.0	 0.0	 0.0	 0.0	 0.0	 0.0	 0.0	 0.0	 62.1; % NG
	351	 13.5	 0.0	 31.05	 -31.05	 1.0	 100.0	 1	 27	 0.0	 0.0	 0.0	 0.0	 0.0	 0.0	 0.0	 0.0	 0.0	 0.0	 0.0	 43.125; % PEL
	352	 12.5	 0.0	 31.05	 -31.05	 1.0	 100.0	 1	 25	 0.0	 0.0	 0.0	 0.0	 0.0	 0.0	 0.0	 0.0	 0.0	 0.0	 0.0	 43.125; % NG
	354	 53.0475	 0.0	 500.0	 -500.0	 1.0	 100.0	 1	 101	 5.095	 0.0	 0.0	 0.0	 0.0	 0.0	 0.0	 0.0	 0.0	 0.0	 0.0	 39.69; % NG
	356	 32.5	 0.0	 49.95	 -49.95	 1.0	 100.0	 1	 65	 0.0	 0.0	 0.0	 0.0	 0.0	 0.0	 0.0	 0.0	 0.0	 0.0	 0.0	 69.375; % PEL
	360	 18.5	 0.0	 19.0	 -19.0	 1.0	 100.0	 1	 37	 0.0	 0.0	 0.0	 0.0	 0.0	 0.0	 0.0	 0.0	 0.0	 0.0	 0.0	 18.75; % PEL
	361	 7.5	 0.0	 13.5	 -13.5	 1.0	 100.0	 1	 15	 0.0	 0.0	 0.0	 0.0	 0.0	 0.0	 0.0	 0.0	 0.0	 0.0	 0.0	 18.75; % NG
	362	 15.0	 0.0	 15.0	 -15.0	 1.0	 100.0	 1	 30	 0.0	 0.0	 0.0	 0.0	 0.0	 0.0	 0.0	 0.0	 0.0	 0.0	 0.0	 18.75; % NG
	365	 0.0	 0.0	 41.0	 -41.0	 1.0	 100.0	 0	 82	 14.335	 0.0	 0.0	 0.0	 0.0	 0.0	 0.0	 0.0	 0.0	 0.0	 0.0	 43.668; % PEL
	367	 37.0	 0.0	 63.18	 -63.18	 1.0	 100.0	 1	 74	 0.0	 0.0	 0.0	 0.0	 0.0	 0.0	 0.0	 0.0	 0.0	 0.0	 0.0	 87.345; % NG
	369	 37.0	 0.0	 37.0	 -37.0	 1.0	 100.0	 1	 74	 0.0	 0.0	 0.0	 0.0	 0.0	 0.0	 0.0	 0.0	 0.0	 0.0	 0.0	 33.85; % NG
	370	 0.0	 0.0	 258.0	 -258.0	 1.0	 100.0	 0	 515	 12.57	 0.0	 0.0	 0.0	 0.0	 0.0	 0.0	 0.0	 0.0	 0.0	 0.0	 40.138; % COW
	374	 0.0	 0.0	 33.33	 -33.33	 1.0	 100.0	 0	 14	 5.61	 0.0	 0.0	 0.0	 0.0	 0.0	 0.0	 0.0	 0.0	 0.0	 0.0	 26.224; % PEL
	375	 0.0	 0.0	 33.33	 -33.33	 1.0	 100.0	 0	 63	 4.25	 0.0	 0.0	 0.0	 0.0	 0.0	 0.0	 0.0	 0.0	 0.0	 0.0	 269.0; % NG
	376	 0.0	 0.0	 33.33	 -33.33	 1.0	 100.0	 0	 3	 19.71	 0.0	 0.0	 0.0	 0.0	 0.0	 0.0	 0.0	 0.0	 0.0	 0.0	 34.714; % PEL
	377	 0.0	 0.0	 231.0	 -231.0	 1.0	 100.0	 0	 461	 36.1	 0.0	 0.0	 0.0	 0.0	 0.0	 0.0	 0.0	 0.0	 0.0	 0.0	 87.2; % NG
	382	 90.25	 0.0	 500.0	 -500.0	 1.0	 100.0	 1	 180	 0.5	 0.0	 0.0	 0.0	 0.0	 0.0	 0.0	 0.0	 0.0	 0.0	 0.0	 42.766; % NG
	383	 72.6225	 0.0	 500.0	 -500.0	 1.0	 100.0	 1	 136	 9.245	 0.0	 0.0	 0.0	 0.0	 0.0	 0.0	 0.0	 0.0	 0.0	 0.0	 49.675; % NG
	388	 116.195	 0.0	 500.0	 -500.0	 1.0	 100.0	 1	 229	 3.39	 0.0	 0.0	 0.0	 0.0	 0.0	 0.0	 0.0	 0.0	 0.0	 0.0	 95.575; % NG
	412	 8.5	 0.0	 33.75	 -33.75	 1.0	 100.0	 1	 17	 0.0	 0.0	 0.0	 0.0	 0.0	 0.0	 0.0	 0.0	 0.0	 0.0	 0.0	 46.875; % NG
	417	 162.07	 0.0	 500.0	 -500.0	 1.0	 100.0	 1	 313	 11.14	 0.0	 0.0	 0.0	 0.0	 0.0	 0.0	 0.0	 0.0	 0.0	 0.0	 41.739; % NG
	421	 14.0	 0.0	 20.25	 -20.25	 1.0	 100.0	 1	 28	 0.0	 0.0	 0.0	 0.0	 0.0	 0.0	 0.0	 0.0	 0.0	 0.0	 0.0	 28.125; % COW
	422	 35.855	 0.0	 500.0	 -500.0	 1.0	 100.0	 1	 64	 7.71	 0.0	 0.0	 0.0	 0.0	 0.0	 0.0	 0.0	 0.0	 0.0	 0.0	 33.499; % PEL
	438	 107.5	 0.0	 108.0	 -108.0	 1.0	 100.0	 1	 215	 0.0	 0.0	 0.0	 0.0	 0.0	 0.0	 0.0	 0.0	 0.0	 0.0	 0.0	 82.5; % COW
	444	 0.0	 0.0	 119.0	 -119.0	 1.0	 100.0	 0	 238	 0.48	 0.0	 0.0	 0.0	 0.0	 0.0	 0.0	 0.0	 0.0	 0.0	 0.0	 261.0; % NG
	445	 0.0	 0.0	 274.0	 -274.0	 1.0	 100.0	 0	 548	 36.785	 0.0	 0.0	 0.0	 0.0	 0.0	 0.0	 0.0	 0.0	 0.0	 0.0	 88.567; % NG
	446	 80.195	 57.5	 188.0	 -73.0	 1.0	 100.0	 1	 146	 14.39	 0.0	 0.0	 0.0	 0.0	 0.0	 0.0	 0.0	 0.0	 0.0	 0.0	 100.0; % NG
	447	 25.195	 89.5	 197.0	 -18.0	 1.0	 100.0	 1	 36	 14.39	 0.0	 0.0	 0.0	 0.0	 0.0	 0.0	 0.0	 0.0	 0.0	 0.0	 100.0; % NG
	448	 24.695	 80.0	 178.0	 -18.0	 1.0	 100.0	 1	 35	 14.39	 0.0	 0.0	 0.0	 0.0	 0.0	 0.0	 0.0	 0.0	 0.0	 0.0	 100.0; % NG
	449	 0.0	 0.0	 41.0	 -41.0	 1.0	 100.0	 0	 81	 36.935	 0.0	 0.0	 0.0	 0.0	 0.0	 0.0	 0.0	 0.0	 0.0	 0.0	 88.875; % NG
	452	 98.4175	 0.0	 77.0	 -77.0	 1.0	 300.0	 1	 153	 43.835	 0.0	 0.0	 0.0	 0.0	 0.0	 0.0	 0.0	 0.0	 0.0	 0.0	 300.0; % NG
	458	 227.2425	 0.0	 500.0	 -500.0	 1.0	 100.0	 1	 453	 1.485	 0.0	 0.0	 0.0	 0.0	 0.0	 0.0	 0.0	 0.0	 0.0	 0.0	 108.038; % NG
	460	 86.5	 0.0	 169.4	 -169.4	 1.0	 100.0	 1	 173	 0.0	 0.0	 0.0	 0.0	 0.0	 0.0	 0.0	 0.0	 0.0	 0.0	 0.0	 260.0; % NG
	467	 75.195	 65.0	 198.0	 -68.0	 1.0	 100.0	 1	 136	 14.39	 0.0	 0.0	 0.0	 0.0	 0.0	 0.0	 0.0	 0.0	 0.0	 0.0	 100.0; % NG
	468	 27.195	 85.0	 190.0	 -20.0	 1.0	 100.0	 1	 40	 14.39	 0.0	 0.0	 0.0	 0.0	 0.0	 0.0	 0.0	 0.0	 0.0	 0.0	 100.0; % NG
	469	 66.195	 65.5	 190.0	 -59.0	 1.0	 100.0	 1	 118	 14.39	 0.0	 0.0	 0.0	 0.0	 0.0	 0.0	 0.0	 0.0	 0.0	 0.0	 100.0; % COW
	470	 65.695	 58.0	 175.0	 -59.0	 1.0	 100.0	 1	 117	 14.39	 0.0	 0.0	 0.0	 0.0	 0.0	 0.0	 0.0	 0.0	 0.0	 0.0	 100.0; % COW
	471	 43.195	 69.5	 175.0	 -36.0	 1.0	 100.0	 1	 72	 14.39	 0.0	 0.0	 0.0	 0.0	 0.0	 0.0	 0.0	 0.0	 0.0	 0.0	 100.0; % NG
	472	 81.195	 60.5	 195.0	 -74.0	 1.0	 100.0	 1	 148	 14.39	 0.0	 0.0	 0.0	 0.0	 0.0	 0.0	 0.0	 0.0	 0.0	 0.0	 100.0; % COW
	473	 27.195	 83.5	 187.0	 -20.0	 1.0	 100.0	 1	 40	 14.39	 0.0	 0.0	 0.0	 0.0	 0.0	 0.0	 0.0	 0.0	 0.0	 0.0	 100.0; % NG
	476	 28.655	 80.0	 184.0	 -24.0	 1.0	 100.0	 1	 47	 10.31	 0.0	 0.0	 0.0	 0.0	 0.0	 0.0	 0.0	 0.0	 0.0	 0.0	 100.0; % NG
	477	 45.7125	 0.0	 43.0	 -43.0	 1.0	 100.0	 1	 86	 5.425	 0.0	 0.0	 0.0	 0.0	 0.0	 0.0	 0.0	 0.0	 0.0	 0.0	 100.0; % COW
	478	 30.655	 79.0	 184.0	 -26.0	 1.0	 100.0	 1	 51	 10.31	 0.0	 0.0	 0.0	 0.0	 0.0	 0.0	 0.0	 0.0	 0.0	 0.0	 100.0; % COW
	484	 38.0	 0.0	 189.9	 -189.9	 1.0	 100.0	 1	 76	 0.0	 0.0	 0.0	 0.0	 0.0	 0.0	 0.0	 0.0	 0.0	 0.0	 0.0	 279.0; % NG
	484	 0.0	 0.0	 46.0	 -46.0	 1.0	 100.0	 0	 92	 241.22	 0.0	 0.0	 0.0	 0.0	 0.0	 0.0	 0.0	 0.0	 0.0	 0.0	 256.221; % NG
	492	 25.5	 0.0	 101.08	 -101.08	 1.0	 100.0	 1	 51	 0.0	 0.0	 0.0	 0.0	 0.0	 0.0	 0.0	 0.0	 0.0	 0.0	 0.0	 263.0; % NG
	503	 112.5	 0.0	 127.5	 -127.5	 1.0	 100.0	 1	 225	 0.0	 0.0	 0.0	 0.0	 0.0	 0.0	 0.0	 0.0	 0.0	 0.0	 0.0	 283.0; % NG
	505	 37.195	 78.0	 186.0	 -30.0	 1.0	 100.0	 1	 60	 14.39	 0.0	 0.0	 0.0	 0.0	 0.0	 0.0	 0.0	 0.0	 0.0	 0.0	 100.0; % NG
	506	 25.195	 79.0	 176.0	 -18.0	 1.0	 100.0	 1	 36	 14.39	 0.0	 0.0	 0.0	 0.0	 0.0	 0.0	 0.0	 0.0	 0.0	 0.0	 100.0; % NG
	507	 33.195	 85.5	 197.0	 -26.0	 1.0	 100.0	 1	 52	 14.39	 0.0	 0.0	 0.0	 0.0	 0.0	 0.0	 0.0	 0.0	 0.0	 0.0	 100.0; % PEL
	508	 49.195	 69.0	 180.0	 -42.0	 1.0	 100.0	 1	 84	 14.39	 0.0	 0.0	 0.0	 0.0	 0.0	 0.0	 0.0	 0.0	 0.0	 0.0	 100.0; % NG
	509	 87.695	 49.5	 180.0	 -81.0	 1.0	 100.0	 1	 161	 14.39	 0.0	 0.0	 0.0	 0.0	 0.0	 0.0	 0.0	 0.0	 0.0	 0.0	 100.0; % NG
	510	 25.195	 80.0	 178.0	 -18.0	 1.0	 100.0	 1	 36	 14.39	 0.0	 0.0	 0.0	 0.0	 0.0	 0.0	 0.0	 0.0	 0.0	 0.0	 100.0; % NG
	511	 26.195	 79.5	 178.0	 -19.0	 1.0	 100.0	 1	 38	 14.39	 0.0	 0.0	 0.0	 0.0	 0.0	 0.0	 0.0	 0.0	 0.0	 0.0	 100.0; % NG
	514	 32.695	 84.0	 194.0	 -26.0	 1.0	 100.0	 1	 51	 14.39	 0.0	 0.0	 0.0	 0.0	 0.0	 0.0	 0.0	 0.0	 0.0	 0.0	 100.0; % NG
	515	 43.195	 73.5	 183.0	 -36.0	 1.0	 100.0	 1	 72	 14.39	 0.0	 0.0	 0.0	 0.0	 0.0	 0.0	 0.0	 0.0	 0.0	 0.0	 100.0; % NG
	516	 57.3275	 6.0	 188.0	 -176.0	 1.0	 100.0	 1	 101	 13.655	 0.0	 0.0	 0.0	 0.0	 0.0	 0.0	 0.0	 0.0	 0.0	 0.0	 100.0; % NG
	517	 63.3275	 4.5	 189.0	 -180.0	 1.0	 100.0	 1	 113	 13.655	 0.0	 0.0	 0.0	 0.0	 0.0	 0.0	 0.0	 0.0	 0.0	 0.0	 100.0; % COW
	518	 64.8275	 15.5	 198.0	 -167.0	 1.0	 100.0	 1	 116	 13.655	 0.0	 0.0	 0.0	 0.0	 0.0	 0.0	 0.0	 0.0	 0.0	 0.0	 100.0; % NG
	520	 40.95	 0.0	 37.0	 -37.0	 1.0	 100.0	 1	 74	 7.9	 0.0	 0.0	 0.0	 0.0	 0.0	 0.0	 0.0	 0.0	 0.0	 0.0	 100.0; % NG
	521	 56.45	 0.0	 53.0	 -53.0	 1.0	 100.0	 1	 105	 7.9	 0.0	 0.0	 0.0	 0.0	 0.0	 0.0	 0.0	 0.0	 0.0	 0.0	 100.0; % NG
	522	 42.2425	 70.5	 175.0	 -34.0	 1.0	 200.0	 1	 67	 17.485	 0.0	 0.0	 0.0	 0.0	 0.0	 0.0	 0.0	 0.0	 0.0	 0.0	 200.0; % NG
	523	 111.7425	 43.5	 190.0	 -103.0	 1.0	 200.0	 1	 206	 17.485	 0.0	 0.0	 0.0	 0.0	 0.0	 0.0	 0.0	 0.0	 0.0	 0.0	 200.0; % NG
	524	 43.7425	 77.5	 190.0	 -35.0	 1.0	 200.0	 1	 70	 17.485	 0.0	 0.0	 0.0	 0.0	 0.0	 0.0	 0.0	 0.0	 0.0	 0.0	 200.0; % NG
	525	 25.695	 80.0	 179.0	 -19.0	 1.0	 100.0	 1	 37	 14.39	 0.0	 0.0	 0.0	 0.0	 0.0	 0.0	 0.0	 0.0	 0.0	 0.0	 100.0; % COW
	527	 35.5	 0.0	 89.92	 -89.92	 1.0	 100.0	 1	 71	 0.0	 0.0	 0.0	 0.0	 0.0	 0.0	 0.0	 0.0	 0.0	 0.0	 0.0	 276.0; % NG
	527	 141.14	 0.0	 500.0	 -500.0	 1.0	 100.0	 1	 211	 71.28	 0.0	 0.0	 0.0	 0.0	 0.0	 0.0	 0.0	 0.0	 0.0	 0.0	 240.197; % NG
	534	 68.36	 0.0	 500.0	 -500.0	 1.0	 100.0	 1	 128	 8.72	 0.0	 0.0	 0.0	 0.0	 0.0	 0.0	 0.0	 0.0	 0.0	 0.0	 211.644; % COW
	536	 52.97	 0.0	 500.0	 -500.0	 1.0	 100.0	 1	 105	 0.94	 0.0	 0.0	 0.0	 0.0	 0.0	 0.0	 0.0	 0.0	 0.0	 0.0	 86.354; % NG
	541	 42.0	 0.0	 273.6	 -273.6	 1.0	 100.0	 1	 84	 0.0	 0.0	 0.0	 0.0	 0.0	 0.0	 0.0	 0.0	 0.0	 0.0	 0.0	 260.0; % NG
	562	 0.0	 0.0	 33.33	 -33.33	 1.0	 100.0	 0	 21	 145.76	 0.0	 0.0	 0.0	 0.0	 0.0	 0.0	 0.0	 0.0	 0.0	 0.0	 160.761; % COW
	564	 13.2975	 0.0	 60.05	 -60.05	 1.0	 100.0	 1	 21	 5.595	 0.0	 0.0	 0.0	 0.0	 0.0	 0.0	 0.0	 0.0	 0.0	 0.0	 100.0; % NG
	567	 126.8075	 0.0	 92.0	 -92.0	 1.0	 400.0	 1	 183	 70.615	 0.0	 0.0	 0.0	 0.0	 0.0	 0.0	 0.0	 0.0	 0.0	 0.0	 415.0; % NG
	578	 0.0	 0.0	 33.33	 -33.33	 1.0	 100.0	 0	 43	 185.77	 0.0	 0.0	 0.0	 0.0	 0.0	 0.0	 0.0	 0.0	 0.0	 0.0	 200.765; % NG
	579	 29.5	 0.0	 60.96	 -60.96	 1.0	 100.0	 1	 59	 0.0	 0.0	 0.0	 0.0	 0.0	 0.0	 0.0	 0.0	 0.0	 0.0	 0.0	 257.0; % NG
	581	 70.5	 -0.425	 89.15	 -90.0	 1.0	 100.0	 1	 141	 0.0	 0.0	 0.0	 0.0	 0.0	 0.0	 0.0	 0.0	 0.0	 0.0	 0.0	 274.0; % NG
	589	 48.435	 0.0	 500.0	 -500.0	 1.0	 100.0	 1	 90	 6.87	 0.0	 0.0	 0.0	 0.0	 0.0	 0.0	 0.0	 0.0	 0.0	 0.0	 41.796; % NG
	590	 21.5	 0.0	 77.68	 -77.68	 1.0	 100.0	 1	 43	 0.0	 0.0	 0.0	 0.0	 0.0	 0.0	 0.0	 0.0	 0.0	 0.0	 0.0	 280.0; % NG
	590	 0.0	 0.0	 79.0	 -79.0	 1.0	 100.0	 0	 157	 40.62	 0.0	 0.0	 0.0	 0.0	 0.0	 0.0	 0.0	 0.0	 0.0	 0.0	 96.242; % NG
	592	 884.295	 0.0	 700.0	 -700.0	 1.0	 100.0	 1	 1400	 368.59	 0.0	 0.0	 0.0	 0.0	 0.0	 0.0	 0.0	 0.0	 0.0	 0.0	 1105.772; % COW
	594	 22.2975	 0.0	 60.05	 -60.05	 1.0	 100.0	 1	 39	 5.595	 0.0	 0.0	 0.0	 0.0	 0.0	 0.0	 0.0	 0.0	 0.0	 0.0	 100.0; % NG
	595	 35.815	 0.0	 500.0	 -500.0	 1.0	 100.0	 1	 65	 6.63	 0.0	 0.0	 0.0	 0.0	 0.0	 0.0	 0.0	 0.0	 0.0	 0.0	 41.894; % NG
	603	 63.0	 14.97	 149.7	 -119.76	 1.0	 100.0	 1	 126	 0.0	 0.0	 0.0	 0.0	 0.0	 0.0	 0.0	 0.0	 0.0	 0.0	 0.0	 268.0; % NG
	606	 96.0	 0.0	 71.0	 -71.0	 1.0	 400.0	 1	 142	 50.0	 0.0	 0.0	 0.0	 0.0	 0.0	 0.0	 0.0	 0.0	 0.0	 0.0	 400.0; % NG
	610	 22.3875	 0.0	 500.0	 -500.0	 1.0	 100.0	 1	 39	 5.775	 0.0	 0.0	 0.0	 0.0	 0.0	 0.0	 0.0	 0.0	 0.0	 0.0	 28.906; % PEL
	613	 140.0	 0.0	 115.0	 -115.0	 1.0	 400.0	 1	 230	 50.0	 0.0	 0.0	 0.0	 0.0	 0.0	 0.0	 0.0	 0.0	 0.0	 0.0	 400.0; % NG
	617	 20.7975	 0.0	 60.05	 -60.05	 1.0	 100.0	 1	 36	 5.595	 0.0	 0.0	 0.0	 0.0	 0.0	 0.0	 0.0	 0.0	 0.0	 0.0	 100.0; % NG
	618	 186.7375	 0.0	 500.0	 -500.0	 1.0	 100.0	 1	 368	 5.475	 0.0	 0.0	 0.0	 0.0	 0.0	 0.0	 0.0	 0.0	 0.0	 0.0	 42.049; % NG
	620	 74.5	 0.0	 214.58	 -214.58	 1.0	 100.0	 1	 149	 0.0	 0.0	 0.0	 0.0	 0.0	 0.0	 0.0	 0.0	 0.0	 0.0	 0.0	 282.0; % NG
...
];

%% generator cost data
%	2	startup	shutdown	n	c(n-1)	...	c0
mpc.gencost = [
	2	 0.0	 0.0	 3	   0.000000	  49.209653	   0.000000; % NG
	2	 0.0	 0.0	 3	   0.000000	  34.006675	   0.000000; % NG
	2	 0.0	 0.0	 3	   0.000000	  25.106965	   0.000000; % NG
	2	 0.0	 0.0	 3	   0.000000	  58.206079	   0.000000; % NG
	2	 0.0	 0.0	 3	   0.000000	   9.893291	   0.000000; % COW
	2	 0.0	 0.0	 3	   0.000000	  33.114280	   0.000000; % NG
	2	 0.0	 0.0	 3	   0.000000	  35.257322	   0.000000; % NG
	2	 0.0	 0.0	 3	   0.000000	  40.297111	   0.000000; % NG
	2	 0.0	 0.0	 3	   0.000000	  21.658659	   0.000000; % COW
	2	 0.0	 0.0	 3	   0.000000	  34.442063	   0.000000; % PEL
	2	 0.0	 0.0	 3	   0.000000	 106.974537	   0.000000; % NG
	2	 0.0	 0.0	 3	   0.000000	  16.121270	   0.000000; % COW
	2	 0.0	 0.0	 3	   0.000000	   6.211727	   0.000000; % NG
	2	 0.0	 0.0	 3	   0.000000	  37.825795	   0.000000; % NG
	2	 0.0	 0.0	 3	   0.000000	   6.721011	   0.000000; % COW
	2	 0.0	 0.0	 3	   0.000000	  23.763503	   0.000000; % NG
	2	 0.0	 0.0	 3	   0.000000	  32.182059	   0.000000; % COW
	2	 0.0	 0.0	 3	   0.000000	  28.431035	   0.000000; % COW
	2	 0.0	 0.0	 3	   0.000000	  29.655946	   0.000000; % NG
	2	 0.0	 0.0	 3	   0.000000	  21.564734	   0.000000; % NG
	2	 0.0	 0.0	 3	   0.000000	  55.619684	   0.000000; % NG
	2	 0.0	 0.0	 3	   0.000000	  21.245865	   0.000000; % NG
	2	 0.0	 0.0	 3	   0.000000	  49.615255	   0.000000; % NG
	2	 0.0	 0.0	 3	   0.000000	  25.964519	   0.000000; % NG
	2	 0.0	 0.0	 3	   0.000000	  15.141744	   0.000000; % NG
	2	 0.0	 0.0	 3	   0.000000	  39.782771	   0.000000; % NG
	2	 0.0	 0.0	 3	   0.000000	  23.267202	   0.000000; % NG
	2	 0.0	 0.0	 3	   0.000000	  32.755385	   0.000000; % COW
	2	 0.0	 0.0	 3	   0.000000	  38.664369	   0.000000; % COW
	2	 0.0	 0.0	 3	   0.000000	  30.800511	   0.000000; % NG
	2	 0.0	 0.0	 3	   0.000000	  36.456662	   0.000000; % NG
	2	 0.0	 0.0	 3	   0.000000	  33.061085	   0.000000; % NG
	2	 0.0	 0.0	 3	   0.000000	  41.724068	   0.000000; % COW
	2	 0.0	 0.0	 3	   0.000000	  42.559991	   0.000000; % NG
	2	 0.0	 0.0	 3	   0.000000	  36.769437	   0.000000; % COW
	2	 0.0	 0.0	 3	   0.000000	  31.571515	   0.000000; % NG
	2	 0.0	 0.0	 3	   0.000000	  20.002982	   0.000000; % COW
	2	 0.0	 0.0	 3	   0.000000	  24.092809	   0.000000; % NG
	2	 0.0	 0.0	 3	   0.000000	  36.833360	   0.000000; % COW
	2	 0.0	 0.0	 3	   0.000000	  30.147327	   0.000000; % COW
	2	 0.0	 0.0	 3	   0.000000	  33.410756	   0.000000; % COW
	2	 0.0	 0.0	 3	   0.000000	  36.105149	   0.000000; % COW
	2	 0.0	 0.0	 3	   0.000000	  27.887633	   0.000000; % COW
	2	 0.0	 0.0	 3	   0.000000	  42.811060	   0.000000; % NUC
	2	 0.0	 0.0	 3	   0.000000	  30.887733	   0.000000; % COW
	2	 0.0	 0.0	 3	   0.000000	  27.642350	   0.000000; % NG
	2	 0.0	 0.0	 3	   0.000000	  18.299407	   0.000000; % NG
	2	 0.0	 0.0	 3	   0.000000	  22.814280	   0.000000; % COW
	2	 0.0	 0.0	 3	   0.000000	  36.112918	   0.000000; % NG
	2	 0.0	 0.0	 3	   0.000000	  25.274362	   0.000000; % COW
	2	 0.0	 0.0	 3	   0.000000	  23.390264	   0.000000; % COW
	2	 0.0	 0.0	 3	   0.000000	  36.433389	   0.000000; % COW
	2	 0.0	 0.0	 3	   0.000000	  35.597394	   0.000000; % NG
	2	 0.0	 0.0	 3	   0.000000	 127.172409	   0.000000; % PEL
	2	 0.0	 0.0	 3	   0.000000	  18.622040	   0.000000; % COW
	2	 0.0	 0.0	 3	   0.000000	  29.688407	   0.000000; % COW
	2	 0.0	 0.0	 3	   0.000000	  27.030293	   0.000000; % NG
	2	 0.0	 0.0	 3	   0.000000	  36.074926	   0.000000; % NG
	2	 0.0	 0.0	 3	   0.000000	  31.049528	   0.000000; % NG
	2	 0.0	 0.0	 3	   0.000000	  40.352684	   0.000000; % NG
	2	 0.0	 0.0	 3	   0.000000	  22.113213	   0.000000; % NG
	2	 0.0	 0.0	 3	   0.000000	  41.474272	   0.000000; % NG
	2	 0.0	 0.0	 3	   0.000000	  18.686650	   0.000000; % PEL
	2	 0.0	 0.0	 3	   0.000000	  37.654512	   0.000000; % COW
	2	 0.0	 0.0	 3	   0.000000	  44.694347	   0.000000; % NG
	2	 0.0	 0.0	 3	   0.000000	  50.574656	   0.000000; % NG
	2	 0.0	 0.0	 3	   0.000000	  26.589708	   0.000000; % NUC
	2	 0.0	 0.0	 3	   0.000000	 123.137974	   0.000000; % NG
	2	 0.0	 0.0	 3	   0.000000	  30.957930	   0.000000; % COW
	2	 0.0	 0.0	 3	   0.000000	  54.576482	   0.000000; % NG
	2	 0.0	 0.0	 3	   0.000000	  47.210091	   0.000000; % NG
	2	 0.0	 0.0	 3	   0.000000	  24.593260	   0.000000; % NG
	2	 0.0	 0.0	 3	   0.000000	  42.926155	   0.000000; % NG
	2	 0.0	 0.0	 3	   0.000000	  36.093637	   0.000000; % COW
	2	 0.0	 0.0	 3	   0.000000	  34.335218	   0.000000; % NG
	2	 0.0	 0.0	 3	   0.000000	  37.013250	   0.000000; % NG
	2	 0.0	 0.0	 3	   0.000000	  33.808341	   0.000000; % COW
	2	 0.0	 0.0	 3	   0.000000	  41.276018	   0.000000; % NG
	2	 0.0	 0.0	 3	   0.000000	  35.799907	   0.000000; % NG
	2	 0.0	 0.0	 3	   0.000000	  22.946272	   0.000000; % NG
	2	 0.0	 0.0	 3	   0.000000	  21.111529	   0.000000; % NG
	2	 0.0	 0.0	 3	   0.000000	  49.840539	   0.000000; % NG
	2	 0.0	 0.0	 3	   0.000000	  40.047328	   0.000000; % NG
	2	 0.0	 0.0	 3	   0.000000	  40.200939	   0.000000; % COW
	2	 0.0	 0.0	 3	   0.000000	  46.185017	   0.000000; % COW
	2	 0.0	 0.0	 3	   0.000000	  17.173776	   0.000000; % NG
	2	 0.0	 0.0	 3	   0.000000	 102.169631	   0.000000; % COW
	2	 0.0	 0.0	 3	   0.000000	  25.776803	   0.000000; % NG
	2	 0.0	 0.0	 3	   0.000000	  21.547974	   0.000000; % COW
	2	 0.0	 0.0	 3	   0.000000	  30.728091	   0.000000; % COW
	2	 0.0	 0.0	 3	   0.000000	  36.335226	   0.000000; % NG
	2	 0.0	 0.0	 3	   0.000000	  35.818864	   0.000000; % NG
	2	 0.0	 0.0	 3	   0.000000	  38.054527	   0.000000; % NG
	2	 0.0	 0.0	 3	   0.000000	  27.151308	   0.000000; % NG
	2	 0.0	 0.0	 3	   0.000000	 115.321539	   0.000000; % NG
	2	 0.0	 0.0	 3	   0.000000	  40.606135	   0.000000; % NG
	2	 0.0	 0.0	 3	   0.000000	 109.596651	   0.000000; % COW
	2	 0.0	 0.0	 3	   0.000000	  45.466805	   0.000000; % COW
	2	 0.0	 0.0	 3	   0.000000	  27.408645	   0.000000; % NG
	2	 0.0	 0.0	 3	   0.000000	  23.664365	   0.000000; % NG
	2	 0.0	 0.0	 3	   0.000000	  31.685725	   0.000000; % COW
	2	 0.0	 0.0	 3	   0.000000	  31.046446	   0.000000; % NG
	2	 0.0	 0.0	 3	   0.000000	  43.133229	   0.000000; % NG
	2	 0.0	 0.0	 3	   0.000000	  34.074046	   0.000000; % COW
	2	 0.0	 0.0	 3	   0.000000	  36.965565	   0.000000; % PEL
	2	 0.0	 0.0	 3	   0.000000	  28.653721	   0.000000; % NG
	2	 0.0	 0.0	 3	   0.000000	  36.061621	   0.000000; % PEL
	2	 0.0	 0.0	 3	   0.000000	 113.738203	   0.000000; % PEL
	2	 0.0	 0.0	 3	   0.000000	 110.459544	   0.000000; % PEL
	2	 0.0	 0.0	 3	   0.000000	  52.896797	   0.000000; % PEL
	2	 0.0	 0.0	 3	   0.000000	  45.969632	   0.000000; % NG
	2	 0.0	 0.0	 3	   0.000000	  40.423403	   0.000000; % NG
	2	 0.0	 0.0	 3	   0.000000	  32.205927	   0.000000; % PEL
	2	 0.0	 0.0	 3	   0.000000	  48.363295	   0.000000; % NG
	2	 0.0	 0.0	 3	   0.000000	  10.331730	   0.000000; % NG
	2	 0.0	 0.0	 3	   0.000000	  42.207857	   0.000000; % PEL
	2	 0.0	 0.0	 3	   0.000000	  43.528306	   0.000000; % PEL
	2	 0.0	 0.0	 3	   0.000000	  20.831006	   0.000000; % NG
	2	 0.0	 0.0	 3	   0.000000	  43.297085	   0.000000; % NG
	2	 0.0	 0.0	 3	   0.000000	  24.932997	   0.000000; % PEL
	2	 0.0	 0.0	 3	   0.000000	  29.943262	   0.000000; % NG
	2	 0.0	 0.0	 3	   0.000000	 111.273464	   0.000000; % NG
	2	 0.0	 0.0	 3	   0.000000	 115.893786	   0.000000; % COW
	2	 0.0	 0.0	 3	   0.000000	 122.245743	   0.000000; % PEL
	2	 0.0	 0.0	 3	   0.000000	  30.444911	   0.000000; % NG
	2	 0.0	 0.0	 3	   0.000000	  28.400393	   0.000000; % PEL
	2	 0.0	 0.0	 3	   0.000000	  48.478920	   0.000000; % NG
	2	 0.0	 0.0	 3	   0.000000	  38.391035	   0.000000; % NG
	2	 0.0	 0.0	 3	   0.000000	  38.530634	   0.000000; % NG
	2	 0.0	 0.0	 3	   0.000000	  33.950482	   0.000000; % NG
	2	 0.0	 0.0	 3	   0.000000	  36.916502	   0.000000; % NG
	2	 0.0	 0.0	 3	   0.000000	  49.999603	   0.000000; % NG
	2	 0.0	 0.0	 3	   0.000000	 109.615473	   0.000000; % COW
	2	 0.0	 0.0	 3	   0.000000	  29.319210	   0.000000; % PEL
	2	 0.0	 0.0	 3	   0.000000	  51.496241	   0.000000; % COW
	2	 0.0	 0.0	 3	   0.000000	  32.858434	   0.000000; % NG
	2	 0.0	 0.0	 3	   0.000000	  27.988833	   0.000000; % NG
	2	 0.0	 0.0	 3	   0.000000	  53.621839	   0.000000; % NG
	2	 0.0	 0.0	 3	   0.000000	  29.943437	   0.000000; % NG
	2	 0.0	 0.0	 3	   0.000000	  37.282005	   0.000000; % NG
	2	 0.0	 0.0	 3	   0.000000	  33.149925	   0.000000; % NG
	2	 0.0	 0.0	 3	   0.000000	   9.550127	   0.000000; % NG
	2	 0.0	 0.0	 3	   0.000000	  51.520651	   0.000000; % NG
	2	 0.0	 0.0	 3	   0.000000	  31.285102	   0.000000; % NG
	2	 0.0	 0.0	 3	   0.000000	  40.238629	   0.000000; % NG
	2	 0.0	 0.0	 3	   0.000000	  37.058027	   0.000000; % NG
	2	 0.0	 0.0	 3	   0.000000	  25.550431	   0.000000; % COW
	2	 0.0	 0.0	 3	   0.000000	  42.819949	   0.000000; % COW
	2	 0.0	 0.0	 3	   0.000000	  49.936441	   0.000000; % NG
	2	 0.0	 0.0	 3	   0.000000	 123.005260	   0.000000; % COW
	2	 0.0	 0.0	 3	   0.000000	  27.554622	   0.000000; % NG
	2	 0.0	 0.0	 3	   0.000000	  49.702657	   0.000000; % NG
	2	 0.0	 0.0	 3	   0.000000	  38.120358	   0.000000; % COW
	2	 0.0	 0.0	 3	   0.000000	  28.348056	   0.000000; % COW
	2	 0.0	 0.0	 3	   0.000000	  16.674337	   0.000000; % NG
	2	 0.0	 0.0	 3	   0.000000	  34.566358	   0.000000; % NG
	2	 0.0	 0.0	 3	   0.000000	  32.917035	   0.000000; % NG
	2	 0.0	 0.0	 3	   0.000000	  32.866061	   0.000000; % NG
	2	 0.0	 0.0	 3	   0.000000	  29.628927	   0.000000; % NG
	2	 0.0	 0.0	 3	   0.000000	  52.387530	   0.000000; % NG
	2	 0.0	 0.0	 3	   0.000000	  18.461037	   0.000000; % PEL
	2	 0.0	 0.0	 3	   0.000000	  11.180393	   0.000000; % NG
	2	 0.0	 0.0	 3	   0.000000	  24.316194	   0.000000; % NG
	2	 0.0	 0.0	 3	   0.000000	  27.890043	   0.000000; % NG
	2	 0.0	 0.0	 3	   0.000000	  42.831659	   0.000000; % NG
	2	 0.0	 0.0	 3	   0.000000	  36.344624	   0.000000; % NG
	2	 0.0	 0.0	 3	   0.000000	  49.968699	   0.000000; % NG
	2	 0.0	 0.0	 3	   0.000000	  55.901992	   0.000000; % NG
	2	 0.0	 0.0	 3	   0.000000	  29.703926	   0.000000; % COW
	2	 0.0	 0.0	 3	   0.000000	  23.887364	   0.000000; % NG
	2	 0.0	 0.0	 3	   0.000000	  14.127180	   0.000000; % NG
	2	 0.0	 0.0	 3	   0.000000	  16.539684	   0.000000; % NG
	2	 0.0	 0.0	 3	   0.000000	  52.206650	   0.000000; % NG
	2	 0.0	 0.0	 3	   0.000000	  21.568533	   0.000000; % NG
	2	 0.0	 0.0	 3	   0.000000	  23.031481	   0.000000; % NG
	2	 0.0	 0.0	 3	   0.000000	  45.224593	   0.000000; % COW
	2	 0.0	 0.0	 3	   0.000000	  28.776922	   0.000000; % NG
	2	 0.0	 0.0	 3	   0.000000	  59.206890	   0.000000; % NG
	2	 0.0	 0.0	 3	   0.000000	  23.999807	   0.000000; % COW
	2	 0.0	 0.0	 3	   0.000000	 117.241998	   0.000000; % NG
	2	 0.0	 0.0	 3	   0.000000	  35.782588	   0.000000; % NG
	2	 0.0	 0.0	 3	   0.000000	  25.037674	   0.000000; % COW
	2	 0.0	 0.0	 3	   0.000000	  33.660168	   0.000000; % NG
	2	 0.0	 0.0	 3	   0.000000	  30.843352	   0.000000; % NG
	2	 0.0	 0.0	 3	   0.000000	  30.205708	   0.000000; % NG
	2	 0.0	 0.0	 3	   0.000000	  35.327443	   0.000000; % NG
	2	 0.0	 0.0	 3	   0.000000	  38.419727	   0.000000; % NG
	2	 0.0	 0.0	 3	   0.000000	  52.278863	   0.000000; % NG
	2	 0.0	 0.0	 3	   0.000000	  23.831168	   0.000000; % NG
	2	 0.0	 0.0	 3	   0.000000	  35.550430	   0.000000; % NG
	2	 0.0	 0.0	 3	   0.000000	  12.053451	   0.000000; % COW
	2	 0.0	 0.0	 3	   0.000000	  37.389032	   0.000000; % NG
	2	 0.0	 0.0	 3	   0.000000	  24.649947	   0.000000; % NG
	2	 0.0	 0.0	 3	   0.000000	  25.950929	   0.000000; % NG
	2	 0.0	 0.0	 3	   0.000000	  20.640443	   0.000000; % NG
	2	 0.0	 0.0	 3	   0.000000	  20.018782	   0.000000; % PEL
	2	 0.0	 0.0	 3	   0.000000	  21.654046	   0.000000; % NG
	2	 0.0	 0.0	 3	   0.000000	  40.552154	   0.000000; % NG
	2	 0.0	 0.0	 3	   0.000000	  51.575697	   0.000000; % NG
	2	 0.0	 0.0	 3	   0.000000	  44.001768	   0.000000; % NG
...
];

%% branch data
%	fbus	tbus	r	x	b	rateA	rateB	rateC	ratio	angle	status	angmin	angmax
mpc.branch = [
	1	 29	 0.0	 0.00028	 0.0	 167.34	 200.81	 251.01	 0.0	 0.0	 1	 -30.0	 30.0;
	1	 1421	 0.0001	 0.01	 0.0	 166.52	 199.82	 249.78	 0.0	 0.0	 1	 -30.0	 30.0;
	13	 2	 0.00125	 0.1	 0.0	 45.88	 55.06	 82.59	 1.01	 0.0	 1	 -30.0	 30.0;
	3	 9	 0.00084	 0.00355	 0.0	 41.29	 49.55	 74.33	 0.0	 0.0	 1	 -30.0	 30.0;
	3	 23	 0.00094	 0.00313	 0.0	 52.06	 62.47	 93.71	 0.0	 0.0	 1	 -30.0	 30.0;
	4	 12	 0.00207	 0.00925	 0.0	 208.73	 250.48	 313.1	 0.0	 0.0	 1	 -30.0	 30.0;
	4	 39	 0.00233	 0.008	 0.0	 206.39	 247.67	 309.58	 0.0	 0.0	 1	 -30.0	 30.0;
	5	 30	 0.0	 0.00028	 0.0	 199.61	 239.53	 299.41	 0.0	 0.0	 1	 -30.0	 30.0;
	5	 37	 0.00244	 0.00805	 0.0	 202.03	 242.44	 303.04	 0.0	 0.0	 1	 -30.0	 30.0;
	40	 6	 0.00125	 0.1	 0.0	 49.98	 59.97	 89.96	 1.01	 0.0	 1	 -30.0	 30.0;
	7	 42	 0.0	 0.00028	 0.0	 27.48	 32.97	 49.46	 0.0	 0.0	 1	 -30.0	 30.0;
	8	 12	 0.00416	 0.0195	 0.0	 59.12	 70.95	 106.42	 0.0	 0.0	 1	 -30.0	 30.0;
	9	 12	 0.00238	 0.00783	 0.0	 41.39	 49.67	 74.51	 0.0	 0.0	 1	 -30.0	 30.0;
	10	 14	 0.00246	 0.00908	 0.0	 168.69	 202.43	 303.65	 0.0	 0.0	 1	 -30.0	 30.0;
	10	 25	 0.0002	 0.00092	 0.0	 131.45	 157.74	 236.61	 0.0	 0.0	 1	 -30.0	 30.0;
	10	 35	 0.01502	 0.05819	 0.0	 83.45	 100.14	 150.21	 0.0	 0.0	 1	 -30.0	 30.0;
	10	 43	 0.00186	 0.00691	 0.0	 73.37	 88.04	 132.06	 0.0	 0.0	 1	 -30.0	 30.0;
	10	 1425	 0.0001	 0.01	 0.0	 172.67	 207.2	 259.0	 0.0	 0.0	 1	 -30.0	 30.0;
	11	 25	 0.01413	 0.06328	 0.0	 131.52	 157.82	 236.73	 0.0	 0.0	 1	 -30.0	 30.0;
	12	 20	 0.02839	 0.12908	 0.0	 46.08	 55.3	 82.95	 0.0	 0.0	 1	 -30.0	 30.0;
	12	 28	 0.00496	 0.01638	 0.0	 180.75	 216.9	 271.13	 0.0	 0.0	 1	 -30.0	 30.0;
	12	 41	 0.01216	 0.05532	 0.0	 60.69	 72.83	 91.04	 0.0	 0.0	 1	 -30.0	 30.0;
	12	 1419	 0.0001	 0.01	 0.0	 83.7	 98.6	 125.55	 0.0	 0.0	 1	 -30.0	 30.0;
	13	 15	 0.00125	 0.1	 0.0	 46.6	 55.92	 83.88	 1.01	 0.0	 1	 -30.0	 30.0;
	13	 26	 0.00125	 0.1	 0.0	 46.6	 55.92	 83.88	 1.01	 0.0	 1	 -30.0	 30.0;
	13	 30	 0.00384	 0.00936	 0.0	 402.23	 482.68	 603.35	 0.0	 0.0	 1	 -30.0	 30.0;
	13	 40	 0.0	 0.00022	 0.0	 250.91	 301.09	 376.37	 0.0	 0.0	 1	 -30.0	 30.0;
	13	 45	 0.00125	 0.1	 0.0	 46.6	 55.92	 83.88	 1.01	 0.0	 1	 -30.0	 30.0;
	14	 18	 0.00036	 0.00122	 0.0	 169.4	 203.28	 304.91	 0.0	 0.0	 1	 -30.0	 30.0;
	40	 16	 0.00125	 0.1	 0.0	 49.98	 59.97	 89.96	 1.01	 0.0	 1	 -30.0	 30.0;
	17	 29	 0.0	 0.00028	 0.0	 110.55	 132.66	 165.82	 0.0	 0.0	 1	 -30.0	 30.0;
	17	 1416	 0.0001	 0.01	 0.0	 83.7	 98.6	 125.55	 0.0	 0.0	 1	 -30.0	 30.0;
	18	 38	 0.0	 0.00027	 0.0	 50.0	 60.0	 90.0	 0.0	 0.0	 1	 -30.0	 30.0;
	19	 22	 0.00057	 0.00168	 0.0	 115.21	 138.25	 207.37	 0.0	 0.0	 1	 -30.0	 30.0;
	19	 43	 0.00058	 0.00165	 0.0	 75.53	 90.64	 135.96	 0.0	 0.0	 1	 -30.0	 30.0;
	19	 46	 0.0	 0.00022	 0.0	 50.0	 60.0	 90.0	 0.0	 0.0	 1	 -30.0	 30.0;
	20	 23	 0.03085	 0.10176	 0.0	 51.14	 61.37	 92.05	 0.0	 0.0	 1	 -30.0	 30.0;
	20	 33	 0.00379	 0.01253	 0.0	 96.01	 115.21	 172.82	 0.0	 0.0	 1	 -30.0	 30.0;
	21	 35	 0.0081	 0.02869	 0.0	 14.99	 17.98	 26.97	 0.0	 0.0	 1	 -30.0	 30.0;
	22	 33	 0.01025	 0.03521	 0.0	 116.65	 139.98	 209.97	 0.0	 0.0	 1	 -30.0	 30.0;
	40	 24	 0.00125	 0.1	 0.0	 49.98	 59.97	 89.96	 1.01	 0.0	 1	 -30.0	 30.0;
	40	 27	 0.00125	 0.1	 0.0	 49.98	 59.97	 89.96	 1.01	 0.0	 1	 -30.0	 30.0;
	28	 29	 0.0	 0.00028	 0.0	 179.24	 215.09	 268.86	 0.0	 0.0	 1	 -30.0	 30.0;
	29	 40	 0.00392	 0.00918	 0.0	 405.62	 486.74	 608.43	 0.0	 0.0	 1	 -30.0	 30.0;
	30	 31	 0.0	 0.00028	 0.0	 27.84	 33.41	 50.12	 0.0	 0.0	 1	 -30.0	 30.0;
	30	 404	 0.0001	 0.01	 0.0	 83.7	 98.6	 125.55	 0.0	 0.0	 1	 -30.0	 30.0;
	32	 33	 0.00703	 0.01458	 0.0	 21.39	 25.66	 38.5	 0.0	 0.0	 1	 -30.0	 30.0;
	40	 34	 0.00125	 0.1	 0.0	 49.98	 59.97	 89.96	 1.01	 0.0	 1	 -30.0	 30.0;
	35	 36	 0.01761	 0.06819	 0.0	 69.46	 83.35	 125.03	 0.0	 0.0	 1	 -30.0	 30.0;
	36	 42	 0.00559	 0.0192	 0.0	 70.03	 84.04	 126.06	 0.0	 0.0	 1	 -30.0	 30.0;
	37	 39	 0.00229	 0.00818	 0.0	 204.21	 245.06	 306.32	 0.0	 0.0	 1	 -30.0	 30.0;
	40	 44	 0.00125	 0.1	 0.0	 50.75	 60.9	 91.35	 1.01	 0.0	 1	 -30.0	 30.0;
	41	 42	 0.00549	 0.01962	 0.0	 61.18	 73.41	 91.77	 0.0	 0.0	 1	 -30.0	 30.0;
	47	 49	 0.0	 0.00022	 0.0	 50.0	 60.0	 90.0	 0.0	 0.0	 1	 -30.0	 30.0;
	48	 53	 0.00109	 0.01324	 0.0	 505.8	 606.96	 910.44	 0.0	 0.0	 1	 -30.0	 30.0;
	48	 57	 0.00107	 0.07923	 0.0	 282.48	 338.98	 508.47	 0.99933	 0.0	 1	 -30.0	 30.0;
	48	 64	 0.00084	 0.01064	 0.0	 1033.31	 1239.97	 1859.95	 1.01	 0.0	 1	 -30.0	 30.0;
...